/batch
/config,noeldb,1     ! force off writing results to database
*get,_wallstrt,active,,time,wall
! ANSYS input file written by Workbench version 2020 R1
! File used for geometry attach: C:\Users\Owner\AppData\Local\Temp\WB_DESKTOP-SDVPC46_Walther Wennholz_8984_2\unsaved_project_files\dp0\SYS\DM\SYS.scdoc
/title,unsaved_project--Static Structural
*DIM,_wb_ProjectScratch_dir,string,248
_wb_ProjectScratch_dir(1) = 'C:\Users\Owner\AppData\Local\Temp\WB_DESKTOP-SDVPC46_Walther Wennholz_8984_2\_ProjectScratch\Scr94EB\'
*DIM,_wb_SolverFiles_dir,string,248
_wb_SolverFiles_dir(1) = 'C:\Users\Owner\AppData\Local\Temp\WB_DESKTOP-SDVPC46_Walther Wennholz_8984_2\unsaved_project_files\dp0\SYS\MECH\'
*DIM,_wb_userfiles_dir,string,248
_wb_userfiles_dir(1) = 'C:\Users\Owner\AppData\Local\Temp\WB_DESKTOP-SDVPC46_Walther Wennholz_8984_2\unsaved_project_files\user_files\'
/com,--- Data in consistent MKS units. See Solving Units in the help system for more information.
/units,MKS
/nopr
/wb,file,start              !  signify a WB generated input file
/prep7
! Turn off shape checking because checks already performed inside WB mesher.
! See help system for more information.
SHPP,OFF,,NOWARN
/nolist
etcon,set             ! allow ANSYS to choose best KEYOP's for 180x elements
/com,*********** Nodes for the whole assembly ***********
nblock,3,,11929
(1i9,3e20.9e3)
        1    -1.122052776E-01     6.153391575E-01    -2.535161027E-02
        2     5.898549865E-02     1.713067650E-01    -1.275200412E-01
        3    -1.207209868E-01     5.947780997E-01    -1.617239416E-02
        4    -1.469566416E-01     5.968340024E-01    -7.143531652E-02
        5     5.294975504E-02     1.511946669E-01    -1.104941838E-01
        6    -1.537017310E-01     5.890453844E-01    -2.309850022E-02
        7    -1.604270587E-01     5.943715269E-01    -5.323054699E-02
        8     4.739487203E-02     1.395789325E-01    -9.625722493E-02
        9    -1.718303461E-01     5.928872556E-01    -2.079972640E-02
       10     3.899747134E-02     1.136489156E-01    -7.709922454E-02
       11     2.709622604E-01     7.552809698E-01    -7.139179997E-01
       12     3.835752156E-02     8.796251053E-02    -6.655832111E-02
       13    -1.618569565E-01     6.450698777E-01    -6.502633241E-02
       14     3.240899131E-02     7.558950452E-02    -5.646102001E-02
       15    -1.432311080E-01     6.113974887E-01    -2.074622423E-02
       16     2.467588056E-02     5.874065808E-02    -3.331660262E-02
       17    -1.582874506E-01     6.103171194E-01    -2.439527887E-02
       18     2.575744835E-01     7.625321932E-01    -7.272482727E-01
       19    -1.334982356E-01     6.311823044E-01    -4.466891233E-02
       20    -1.744083033E-01     6.137007810E-01    -2.235818583E-02
! ... 10826 like lines cut
/wb,elem,start            !  set before creation of elements
/com,*********** Elements for Body 1 "SYS\Surface" ***********
et,1,187
eblock,19,solid,,556
(19i9)
        1        1        1        1        0        0        0        0       10        0        1      504     1131      933      509     5815     7576     5814     5810
     5841     5839
        1        1        1        1        0        0        0        0       10        0        2      349     1105      875      825     4974     7382     4973     4972
     7226     7225
        1        1        1        1        0        0        0        0       10        0        3      774     1094     1241     1277     7047     7964     7048     7049
     7966     8247
        1        1        1        1        0        0        0        0       10        0        4      226     1106     1000      467     4155     7745     4153     4150
     5621     5620
        1        1        1        1        0        0        0        0       10        0        5      395      973     1001     1078     5230     7681     5231     5232
     7682     7747
        1        1        1        1        0        0        0        0       10        0        6      238      357      385     1126     4246     5017     4247     4252
     5023     5166
        1        1        1        1        0        0        0        0       10        0        7      205      228      307      637     3995     4180     3996     4001
     4182     4702
        1        1        1        1        0        0        0        0       10        0        8      387     1051      658      760     5189     6575     5182     5186
     6992     6574
        1        1        1        1        0        0        0        0       10        0        9      658     1051     1216      760     6575     7884     6576     6574
     6992     6996
        1        1        1        1        0        0        0        0       10        0       10      387      658     1216      760     5182     6576     5193     5186
     6574     6996
! ... 1093 like lines cut
!Material Id = {13752730-B65D-4B91-B285-2F14565769EC}
et,2,186
keyo,2,2,1          ! set full integration on SOLID186
eblock,19,solid,,2582
(19i9)
        1        2        1        1        0        0        0        0       20        0      557      732     1818     1626     1053      927     1874     1792     1062
     6893     9104     7888     6891     7552     9522     7902     7551     6889     9556     9103     7887
        1        2        1        1        0        0        0        0       20        0      558      235     1270      281     1099     1422     1479     1380     1464
     4231     4541     4540     4230     8717     8626     8625     8716     4232     8296     4542     7971
        1        2        1        1        0        0        0        0       20        0      559       99      987      729      337      138      207      699      942
     3251     6881     4892     3247     3515     4018     6760     3519     3246     4023     6756     4894
        1        2        1        1        0        0        0        0       20        0      560       88      321     1267      532      281      150      458      254
     3158     4795     5955     3159     3596     3598     4366     4365     3157     3597     5575     4367
        1        2        1        1        0        0        0        0       20        0      561      127      131      684      322      327     1249      776      922
     3451     3478     4798     3453     4829     7054     7051     4827     3454     3480     6693     4799
        1        2        1        1        0        0        0        0       20        0      562      529     1059     1117      716     2201     2168     2092     2118
     5943     7898     6832     5942    10224    10101    10100    10155     5945     7899     8009     6833
        1        2        1        1        0        0        0        0       20        0      563      404     1125     1091      741     2320     2466     2305     2348
     5288     7950     6924     5287    10523    10480    10479    10521     5292     8019     7954     6926
        1        2        1        1        0        0        0        0       20        0      564       44      491      452       98     2080     2086     2089     2134
     2849     5540     3242     2847    10070    10084    10091    10071     2852     5738     5543     3245
        1        2        1        1        0        0        0        0       20        0      565       16      308       91      792       25       42       61      970
     2648     3174     3175     2649     2694     2821     2969     2695     2647     2823     2965     7110
        1        2        1        1        0        0        0        0       20        0      566      327      922     1028      995     1249      776     1170      672
     4827     7543     7726     4828     7054     7052     6648     6650     4829     7051     7823     6647
! ... 5145 like lines cut
!Material Id = {13752730-B65D-4B91-B285-2F14565769EC}
/wb,elem,end               !  done creating elements
/com,*********** Send User Defined Coordinate System(s) ***********
local,12,0,1.41589824713879,0.725552535575954,-0.100163159014175,0.,0.,0.
local,13,0,1.34652832436337,0.644527828316222,-0.122720092621573,0.,0.,0.
local,14,0,1.27770692378749,0.589492100402443,-0.129940945359628,0.,0.,0.
local,15,0,0.946312273001672,0.448484352114155,-0.1513029775808,0.,0.,0.
local,16,0,0.824643472791439,0.316844845321803,-0.179308640283452,0.,0.,0.
local,17,0,0.229239499223669,0.964511895958316,-1.25771161464653,0.,0.,0.
local,18,0,0.236854327830911,0.870921915540077,-1.12971162812718,0.,0.,0.
local,19,0,0.239056478781046,0.739914190702679,-1.07684321366328,0.,0.,0.
local,20,0,0.248976622274821,0.699669206375293,-0.797225400903055,0.,0.,0.
local,21,0,0.25710704628583,0.60969455202368,-0.585188837068351,0.,0.,0.
local,22,0,1.19266042981519,0.519771394925072,-0.285850562118602,0.,0.,0.
local,23,0,1.06726749574297,0.493240320777311,-0.264303492544155,0.,0.,0.
local,24,0,1.01210667399718,0.462753375400495,-0.261404900250982,0.,0.,0.
local,25,0,0.705888921040869,0.435160555199901,-0.258442401942492,0.,0.,0.
local,26,0,0.490335122353946,0.420857400825595,-0.240788972653458,0.,0.,0.
csys,0
toffst,273.15,  ! Temperature offset from absolute zero
/com,*********** Set Reference Temperature ***********
tref,22.
/wb,mat,start              !  starting to send materials
/com,*********** Send Materials ***********
Temperature = 'TEMP' ! Temperature
MP,DENS,1,7850,	! kg m^-3
MP,ALPX,1,1.2e-05,	! C^-1
MP,C,1,434,	! J kg^-1 C^-1
MP,KXX,1,60.5,	! W m^-1 C^-1
MP,RSVX,1,1.7e-07,	! kg m^3 A^-2 s^-3
MP,EX,1,200000000000,	! Pa
MP,NUXY,1,0.3,
MP,MURX,1,10000,

/wb,mat,end                !  done sending materials
!************************* Model Summary ********************
!SYS\Surface,	Structural Steel,	matid,	1
!************************* End Model Summary ********************
! get the diagonal of the bounding box. Needed later for other things
*get,_xmin,node,,mnloc,x
*get,_ymin,node,,mnloc,y
*get,_zmin,node,,mnloc,z
*get,_xmax,node,,mxloc,x
*get,_ymax,node,,mxloc,y
*get,_zmax,node,,mxloc,z
_ASMDIAG=(_xmax-_xmin)*(_xmax-_xmin)+(_ymax-_ymin)*(_ymax-_ymin)+(_zmax-_zmin)*(_zmax-_zmin)
_ASMDIAG=SQRT(_ASMDIAG)
/wb,contact,start          !  starting to send contact
/wb,contact,end            !  done creating contacts
CMBLOCK,SELECTION,NODE,      263
(8i10)
        41        73       109       139       182       295       360       380
       450       551       589       664       882      1136      1248      1250
      1256      1303      1350      1497      1500      1501      1575      1576
      1577      1578      1579      1611      1625      1634      1672      1692
      1703      1720      1731      1746      1755      1802      1847      1849
      1868      1883      1884      1897      1905      1914      1915      1918
      1940      1941      1951      2251      2252      2283      2291      2313
      2342      2358      2365      2369      2416      2430      2431      2434
      2472      2481      2512      2533      2812      2813      2814      2815
      2816      2817      2818      2819      2820      3046      3047      3050
      3051      3052      3085      3089      3341      3342      3343      3344
      3345      3346      3348      3524      3528      3531      3806      3807
      3808      3809      3810      3811      3812      3813      3814      3815
      3816      4625      4628      5037      5038      5039      5040      5041
      5042      5043      5044      5045      5139      5140      5141      5143
      5526      5528      5530      5531      5534      6030      6031      6032
      6033      6034      6035      6036      6262      6263      6264      6603
      6605      7227      7229      7399      7400      8102      8103      8105
      8106      8255      8256      8257      8258      8259      8260      8261
      8262      8263      8264      8265      8266      8267      8268      8269
! ... 13 like lines cut
CMBLOCK,SELECTION_2,NODE,      494
(8i10)
        54        78        84       103       126       152       177       178
       186       190       211       214       219       250       316       349
       362       365       413       451       483       520       554       579
       580       676       715       732       734       764       803       825
       875       881       927       964       971      1035      1053      1062
      1080      1105      1200      1355      1385      1395      1409      1412
      1423      1439      1440      1465      1523      1534      1535      1551
      1552      1553      1554      1568      1569      1593      1603      1626
      1628      1686      1696      1697      1705      1709      1737      1740
      1752      1759      1760      1762      1772      1790      1792      1796
      1797      1806      1809      1812      1818      1836      1840      1857
      1872      1874      1902      1916      1917      2284      2296      2311
      2314      2315      2340      2350      2377      2391      2406      2428
      2444      2449      2462      2524      2525      2526      2527      2917
      2918      2919      2920      2921      2922      2923      2924      3038
      3048      3049      3083      3084      3086      3087      3088      3128
      3129      3130      3131      3133      3134      3188      3275      3276
      3277      3278      3279      3347      3445      3446      3447      3448
      3449      3450      3523      3525      3526      3527      3529      3530
      3607      3608      3609      3610      3611      3613      3777      3778
! ... 42 like lines cut
CMBLOCK,SELECTION_3,NODE,      275
(8i10)
        30        49        72        93       158       209       258       272
       274       319       464       499       521       530       653       754
       839       844       892       956      1002      1114      1173      1253
      1283      1302      1328      1340      1364      1387      1426      1456
      1514      1539      1540      1556      1558      1562      1623      1624
      1627      1629      1668      1676      1678      1681      1704      1707
      1721      1741      1769      1800      1823      1825      1845      1850
      1875      1930      1931      2295      2337      2345      2457      2458
      2463      2467      2490      2529      2531      2726      2727      2728
      2732      2881      2882      2883      2884      2885      2887      2897
      2900      3036      3037      3039      3040      3041      3042      3043
      3044      3045      3132      3150      3182      3183      3184      3185
      3186      3187      3189      3190      3612      3648      3649      3650
      3651      3652      3653      3786      3787      3864      4032      4033
      4034      4035      4036      4037      4337      4339      4345      4389
      4390      4391      4496      4497      4498      4503      4504      4505
      4506      4507      4508      4784      4785      4786      4787      4788
      5066      5067      5069      5602      5603      5604      5605      5606
      5771      5772      5773      5879      5880      5881      5900      5901
      5902      5903      5946      5947      5948      5949      5950      6485
! ... 15 like lines cut
CMBLOCK,SELECTION_4,NODE,      305
(8i10)
        73        78       126       139       186       211       316       362
       380       413       451       551       554       579       732       734
       764       803       927       971      1035      1053      1062      1136
      1593      1625      1626      1628      1672      1692      1696      1709
      1720      1737      1740      1762      1792      1809      1818      1840
      1868      1874      1883      1884      1897      1902      1905      1914
      1915      1917      1918      2252      2283      2296      2314      2315
      2350      2365      2369      2377      2430      2431      2434      2449
      2472      2481      2524      2525      2526      2527      2533      3046
      3047      3048      3049      3050      3051      3052      3083      3084
      3085      3086      3087      3088      3089      3446      3447      3448
      3449      3450      3523      3524      3525      3526      3527      3528
      3529      3530      3531      3834      3835      3836      3837      3838
      4045      4046      4047      4048      4050      4066      4070      4106
      4108      4626      4766      4767      4768      4769      4770      4771
      4772      4773      5050      5051      5052      5053      5139      5140
      5141      5142      5143      5332      5333      5334      5335      5336
      5337      5338      5339      5535      5536      5538      5896      5897
      6030      6031      6033      6034      6035      6036      6052      6053
      6054      6055      6056      6058      6059      6060      6061      6062
! ... 19 like lines cut
CMBLOCK,SELECTION_5,NODE,       84
(8i10)
       177       258       464       521       881      1114      1603      1627
      1629      1678      1681      1686      1705      1721      1752      1769
      1790      1800      1845      1850      1866      1875      2881      2887
      2897      2901      3186      3777      3778      3780      3781      3782
      3864      4109      4388      4390      4391      5603      5604      5605
      5606      5772      5773      5899      5900      5901      5902      5903
      6057      6064      6975      7397      7398      7634      7659      8004
      9027      9028      9088      9094      9106      9107      9108      9113
      9114      9115      9263      9264      9265      9272      9273      9274
      9275      9286      9288      9340      9345      9380      9381      9382
      9447      9518      9533      9569
CMBLOCK,SELECTION_6,NODE,       61
(8i10)
        27       526       588      1614      1618      1714      1904      1929
      1948      1949      1950      2249      2250      2303      2394      2455
      2702      2703      2704      2705      2706      2707      2708      2709
      2710      2711      2712      5923      5928      5929      5930      6258
      6259      6260      6261      9059      9060      9062      9063      9075
      9076      9077      9366      9630      9631      9632      9633      9680
      9681      9682      9713      9714      9715      9716      9717     10283
     10297     10298     10299     10474     10693
CMBLOCK,SELECTION_7,NODE,      156
(8i10)
       423       457       577       741      1034      1091      1125      1128
      1219      1220      1247      1607      1613      1766      1795      1813
      1856      1932      1933      1944      1945      1969      1979      1980
      2062      2240      2245      2304      2305      2321      2348      2460
      2466      2487      3436      3702      3704      3705      5285      5288
      5384      5385      5386      5387      5388      5389      5567      5568
      5571      5572      5573      5924      5925      5926      5927      6178
      6179      6181      6182      6184      6256      6257      6402      6404
      6405      6924      6925      6926      7516      7519      7521      7522
      7840      7841      7842      7843      7844      7845      7846      7847
      7950      7951      7952      7953      7954      8016      8017      8018
      8019      8025      8026      8027      8028      8029      8030      8031
      8032      8216      8217      8218      8219      8220      8221      8222
      8223      8224      8250      8251      8252      8253      8254      9037
      9038      9039      9040      9058      9061      9365      9473      9474
      9475      9484      9525      9526      9546      9574      9665      9686
      9687      9688      9704      9707      9708      9709      9773      9774
      9776      9804      9806     10032     10282     10284     10292     10382
     10383     10473     10475     10477     10478     10479     10480     10523
     10525     10694     10695     10805
CMBLOCK,SELECTION_8,NODE,      341
(8i10)
        21        64        70       124       125       136       137       166
       187       232       346       404       504       509       510       615
       618       619       624       845       865       891       914       933
      1052      1093      1131      1149      1255      1597      1602      1717
      1728      1729      1736      1749      1761      1767      1768      1771
      1793      1833      1852      1867      1909      1910      1913      1920
      1921      1942      1943      1955      1956      1968      2055      2071
      2081      2094      2149      2173      2200      2230      2246      2270
      2275      2294      2318      2320      2374      2388      2398      2424
      2452      2477      2489      2494      2539      2657      2658      2659
      2675      2676      2677      2678      2679      2680      2984      2985
      2986      2987      2988      2989      2990      3021      3022      3023
      3024      3025      3026      3027      3433      3434      3435      3437
      3438      3439      3440      3441      3443      3444      3482      3504
      3505      3507      3508      3509      3510      3511      3512      3513
      3514      3703      3706      3707      3708      3839      3840      3841
      3842      3843      4209      4210      4211      4212      4213      4467
      4949      4950      4951      4952      4953      4954      4955      5286
      5287      5289      5290      5291      5292      5569      5570      5810
      5811      5812      5813      5814      5815      5816      5835      5836
! ... 23 like lines cut
CMBLOCK,SELECTION_9,NODE,      699
(8i10)
        11        18        21        64        70        83        86       124
       125       132       136       137       149       153       164       166
       168       187       232       267       300       346       404       423
       447       457       504       509       510       526       577       611
       615       618       619       622       623       624       662       741
       745       771       788       806       845       861       865       891
       914       916       933       981       996      1034      1039      1052
      1091      1092      1093      1103      1125      1128      1130      1131
      1149      1155      1164      1219      1220      1247      1255      1265
      1583      1589      1595      1597      1602      1607      1613      1614
      1665      1727      1728      1729      1736      1738      1749      1761
      1766      1767      1768      1771      1774      1776      1793      1794
      1795      1813      1833      1841      1843      1852      1856      1860
      1867      1880      1908      1909      1912      1913      1920      1921
      1932      1933      1955      1956      1968      1969      1979      1980
      2054      2055      2062      2071      2081      2094      2109      2149
      2173      2179      2191      2200      2265      2270      2275      2294
      2304      2320      2321      2348      2374      2398      2424      2427
      2438      2452      2460      2466      2469      2477      2487      2489
      2494      2513      2535      2537      2539      2616      2617      2618
! ... 68 like lines cut
CMBLOCK,SELECTION_10,NODE,      332
(8i10)
        74       106       113       146       161       279       287       299
       303       305       367       396       585       603       605       643
       654       660       690       693       696       697       742       763
       906       912       930       991      1040      1049      1057      1065
      1083      1094      1174      1184      1187      1189      1214      1228
      1274      1275      1277      1591      1621      1640      1643      1645
      1646      1650      1666      1691      1695      1739      1751      1758
      1784      1798      1869      1870      1885      1886      1887      1898
      2025      2050      2950      3053      3054      3055      3056      3057
      3058      3059      3060      3061      3198      3200      3201      3206
      3207      3210      3316      3317      3318      3319      3320      3321
      3322      3323      3367      3370      3565      3566      3567      3568
      3569      3570      3571      3572      3573      3574      3618      3667
      3668      3669      3670      3671      3672      4523      4524      4525
      4533      4534      4578      4579      4580      4581      4582      4583
      4584      4585      4586      4587      4646      4648      4649      4650
      4677      4679      4680      4681      4685      4686      4687      4688
      4689      4690      5076      5077      5078      5109      5110      5214
      5224      5226      5233      5234      5235      5236      5237      5238
      5239      5240      5438      5439      5545      5546      5547      5626
! ... 22 like lines cut
CMBLOCK,SELECTION_11,NODE,      206
(8i10)
        51        56        87       228       350       383       391       454
       517       606       638       656       765       953      1082      1088
      1115      1202      1240      1349      1450      1557      1561      1563
      1610      1622      1656      1660      1664      1667      1702      1710
      1719      1773      1781      1805      1827      1864      1865      1889
      1922      1923      2282      2290      2324      2379      2402      2410
      2419      2423      2433      2729      2730      2731      2880      2886
      2896      2898      2899      2931      2932      2933      2934      2935
      2936      3151      3152      3153      3154      3155      3156      3932
      3997      4000      4002      4181      4183      4184      4185      4187
      4188      4222      4224      4978      4979      4980      4981      4982
      4983      4984      5154      5155      5156      5157      5158      5159
      5208      5209      5210      5211      5212      5421      5550      5551
      5552      5553      5554      5555      5639      5641      5687      5689
      5690      5691      5882      5883      5884      6332      6334      6479
      6482      6483      6486      6553      6554      6566      6567      6568
      6569      6570      7012      7013      7015      7016      7017      7293
      7294      7452      7453      7625      7749      7752      7935      7936
      7946      8005      8197      8243      8244      8245      8536      8537
      8538      8633      8755      8914      8915      8921      8922      8923
! ... 6 like lines cut
CMBLOCK,SELECTION_12,NODE,      313
(8i10)
       117       196       205       234       253       307       359       376
       381       397       412       430       471       481       513       562
       610       637       683       692       766       778       884       898
      1036      1054      1058      1108      1188      1264      1296      1305
      1327      1382      1384      1415      1449      1468      1513      1527
      1555      1571      1592      1594      1616      1631      1641      1648
      1655      1662      1673      1674      1689      1735      1754      1765
      1777      1785      1819      1826      1828      1851      1892      1893
      2289      2299      2328      2347      2397      2400      2456      2499
      2509      3391      3392      3393      3394      3395      3396      3397
      3929      3930      3931      3933      3934      3935      3936      3995
      3996      3998      3999      4001      4003      4004      4005      4180
      4182      4186      4219      4220      4221      4223      4225      4226
      4357      4358      4359      4360      4361      4362      4363      4364
      4571      4574      4576      4700      4701      4702      4703      4704
      4705      4985      4986      5029      5030      5031      5032      5033
      5034      5035      5036      5116      5117      5118      5120      5121
      5144      5145      5146      5147      5148      5241      5242      5243
      5244      5245      5246      5247      5327      5328      5329      5330
      5331      5422      5423      5424      5640      5642      5643      5644
! ... 20 like lines cut
CMBLOCK,SELECTION_13,NODE,      115
(8i10)
       286       331       500       627       668       920       929      1071
      1180      1345      1406      1432      1486      1570      1580      1601
      1606      1633      1750      1848      1895      2292      2300      2325
      2392      2451      3018      3332      3333      3334      3336      3338
      3340      3922      3924      3928      4159      4569      4572      4573
      4575      4577      4848      4849      4850      4851      4852      5119
      5218      5777      5778      5780      5782      5859      5861      6104
      6431      6432      6433      6435      6436      6625      6627      6628
      6651      6690      6691      6846      7019      7102      7163      7402
      7539      7566      7915      7916      8172      8173      8360      8389
      8390      8465      8521      8522      8524      8692      8731      8764
      8766      8768      8919      8920      8954      8957      8991      9018
      9021      9034      9127      9129      9224      9227      9252      9255
      9446      9562      9609     10385     10428     10435     10458     10461
     10462     10538     10594
CMBLOCK,SELECTION_14,NODE,      142
(8i10)
        56        87       205       209       228       391       517       653
       656       839       956      1115      1240      1622      1667      1676
      1702      1704      1710      1741      1781      1805      1826      1864
      1865      2290      2295      2410      2457      2458      2531      2727
      2931      2932      2933      2934      2935      2936      3150      3151
      3152      3153      3154      3155      3156      3932      3995      3997
      4000      4002      4004      4032      4033      4034      4035      4036
      4037      4180      4181      4182      4183      4184      4185      4186
      4187      4188      4703      5066      5067      5069      5154      5157
      5159      5208      5209      5210      5211      5212      5421      5687
      5880      5881      5882      5883      5884      6552      6553      6554
      6555      6556      6567      6568      6569      6570      7279      7280
      7281      7430      7432      7633      8005      8197      8243      8244
      8245      8999      9087      9089      9090      9202      9203      9235
      9236      9237      9238      9257      9258      9332      9333      9334
      9337      9338      9353      9354      9428      9429      9457      9496
      9539      9559      9684      9685     10406     10429     10430     10431
     10445     10446     10670     10719     10796     10797
CMBLOCK,SELECTION_15,NODE,       82
(8i10)
       195       196       307       376       430       513       668       673
       683       766       841      1054      1580      1592      1594      1718
      1777      3394      3921      3922      3924      3925      3926      3927
      3928      3929      3930      3933      3934      3996      3998      3999
      4003      4159      4161      4164      4168      4169      4170      4700
      4701      4702      4704      4705      5116      5117      5118      5119
      5120      5121      5324      5422      5424      5858      5859      5861
      5862      5863      6355      6625      6626      6627      6651      6654
      6655      6691      6692      7018      7019      7020      7285      7286
      8954      8956      8957      8989      8990      8991      8992      9128
      9280      9495
/golist
/wb,load,start             !  starting to send loads
/com,*********** Create Direct FE , Displacements ****
CMBLOCK,_CM83U  ,NODE,      263
(8i10)
        41        73       109       139       182       295       360       380
       450       551       589       664       882      1136      1248      1250
      1256      1303      1350      1497      1500      1501      1575      1576
      1577      1578      1579      1611      1625      1634      1672      1692
      1703      1720      1731      1746      1755      1802      1847      1849
      1868      1883      1884      1897      1905      1914      1915      1918
      1940      1941      1951      2251      2252      2283      2291      2313
      2342      2358      2365      2369      2416      2430      2431      2434
      2472      2481      2512      2533      2812      2813      2814      2815
      2816      2817      2818      2819      2820      3046      3047      3050
      3051      3052      3085      3089      3341      3342      3343      3344
      3345      3346      3348      3524      3528      3531      3806      3807
      3808      3809      3810      3811      3812      3813      3814      3815
      3816      4625      4628      5037      5038      5039      5040      5041
      5042      5043      5044      5045      5139      5140      5141      5143
      5526      5528      5530      5531      5534      6030      6031      6032
      6033      6034      6035      6036      6262      6263      6264      6603
      6605      7227      7229      7399      7400      8102      8103      8105
      8106      8255      8256      8257      8258      8259      8260      8261
      8262      8263      8264      8265      8266      8267      8268      8269
! ... 13 like lines cut
CMBLOCK,_CM85U  ,NODE,      494
(8i10)
        54        78        84       103       126       152       177       178
       186       190       211       214       219       250       316       349
       362       365       413       451       483       520       554       579
       580       676       715       732       734       764       803       825
       875       881       927       964       971      1035      1053      1062
      1080      1105      1200      1355      1385      1395      1409      1412
      1423      1439      1440      1465      1523      1534      1535      1551
      1552      1553      1554      1568      1569      1593      1603      1626
      1628      1686      1696      1697      1705      1709      1737      1740
      1752      1759      1760      1762      1772      1790      1792      1796
      1797      1806      1809      1812      1818      1836      1840      1857
      1872      1874      1902      1916      1917      2284      2296      2311
      2314      2315      2340      2350      2377      2391      2406      2428
      2444      2449      2462      2524      2525      2526      2527      2917
      2918      2919      2920      2921      2922      2923      2924      3038
      3048      3049      3083      3084      3086      3087      3088      3128
      3129      3130      3131      3133      3134      3188      3275      3276
      3277      3278      3279      3347      3445      3446      3447      3448
      3449      3450      3523      3525      3526      3527      3529      3530
      3607      3608      3609      3610      3611      3613      3777      3778
! ... 42 like lines cut
CMBLOCK,_CM87U  ,NODE,      275
(8i10)
        30        49        72        93       158       209       258       272
       274       319       464       499       521       530       653       754
       839       844       892       956      1002      1114      1173      1253
      1283      1302      1328      1340      1364      1387      1426      1456
      1514      1539      1540      1556      1558      1562      1623      1624
      1627      1629      1668      1676      1678      1681      1704      1707
      1721      1741      1769      1800      1823      1825      1845      1850
      1875      1930      1931      2295      2337      2345      2457      2458
      2463      2467      2490      2529      2531      2726      2727      2728
      2732      2881      2882      2883      2884      2885      2887      2897
      2900      3036      3037      3039      3040      3041      3042      3043
      3044      3045      3132      3150      3182      3183      3184      3185
      3186      3187      3189      3190      3612      3648      3649      3650
      3651      3652      3653      3786      3787      3864      4032      4033
      4034      4035      4036      4037      4337      4339      4345      4389
      4390      4391      4496      4497      4498      4503      4504      4505
      4506      4507      4508      4784      4785      4786      4787      4788
      5066      5067      5069      5602      5603      5604      5605      5606
      5771      5772      5773      5879      5880      5881      5900      5901
      5902      5903      5946      5947      5948      5949      5950      6485
! ... 15 like lines cut
CMBLOCK,_CM89U  ,NODE,      305
(8i10)
        73        78       126       139       186       211       316       362
       380       413       451       551       554       579       732       734
       764       803       927       971      1035      1053      1062      1136
      1593      1625      1626      1628      1672      1692      1696      1709
      1720      1737      1740      1762      1792      1809      1818      1840
      1868      1874      1883      1884      1897      1902      1905      1914
      1915      1917      1918      2252      2283      2296      2314      2315
      2350      2365      2369      2377      2430      2431      2434      2449
      2472      2481      2524      2525      2526      2527      2533      3046
      3047      3048      3049      3050      3051      3052      3083      3084
      3085      3086      3087      3088      3089      3446      3447      3448
      3449      3450      3523      3524      3525      3526      3527      3528
      3529      3530      3531      3834      3835      3836      3837      3838
      4045      4046      4047      4048      4050      4066      4070      4106
      4108      4626      4766      4767      4768      4769      4770      4771
      4772      4773      5050      5051      5052      5053      5139      5140
      5141      5142      5143      5332      5333      5334      5335      5336
      5337      5338      5339      5535      5536      5538      5896      5897
      6030      6031      6033      6034      6035      6036      6052      6053
      6054      6055      6056      6058      6059      6060      6061      6062
! ... 19 like lines cut
CMBLOCK,_CM91U  ,NODE,       84
(8i10)
       177       258       464       521       881      1114      1603      1627
      1629      1678      1681      1686      1705      1721      1752      1769
      1790      1800      1845      1850      1866      1875      2881      2887
      2897      2901      3186      3777      3778      3780      3781      3782
      3864      4109      4388      4390      4391      5603      5604      5605
      5606      5772      5773      5899      5900      5901      5902      5903
      6057      6064      6975      7397      7398      7634      7659      8004
      9027      9028      9088      9094      9106      9107      9108      9113
      9114      9115      9263      9264      9265      9272      9273      9274
      9275      9286      9288      9340      9345      9380      9381      9382
      9447      9518      9533      9569
/com,*********** Create Direct FE , Forces ****
CMBLOCK,_CM180F ,NODE,      156
(8i10)
       423       457       577       741      1034      1091      1125      1128
      1219      1220      1247      1607      1613      1766      1795      1813
      1856      1932      1933      1944      1945      1969      1979      1980
      2062      2240      2245      2304      2305      2321      2348      2460
      2466      2487      3436      3702      3704      3705      5285      5288
      5384      5385      5386      5387      5388      5389      5567      5568
      5571      5572      5573      5924      5925      5926      5927      6178
      6179      6181      6182      6184      6256      6257      6402      6404
      6405      6924      6925      6926      7516      7519      7521      7522
      7840      7841      7842      7843      7844      7845      7846      7847
      7950      7951      7952      7953      7954      8016      8017      8018
      8019      8025      8026      8027      8028      8029      8030      8031
      8032      8216      8217      8218      8219      8220      8221      8222
      8223      8224      8250      8251      8252      8253      8254      9037
      9038      9039      9040      9058      9061      9365      9473      9474
      9475      9484      9525      9526      9546      9574      9665      9686
      9687      9688      9704      9707      9708      9709      9773      9774
      9776      9804      9806     10032     10282     10284     10292     10382
     10383     10473     10475     10477     10478     10479     10480     10523
     10525     10694     10695     10805
CMBLOCK,_CM182F ,NODE,      341
(8i10)
        21        64        70       124       125       136       137       166
       187       232       346       404       504       509       510       615
       618       619       624       845       865       891       914       933
      1052      1093      1131      1149      1255      1597      1602      1717
      1728      1729      1736      1749      1761      1767      1768      1771
      1793      1833      1852      1867      1909      1910      1913      1920
      1921      1942      1943      1955      1956      1968      2055      2071
      2081      2094      2149      2173      2200      2230      2246      2270
      2275      2294      2318      2320      2374      2388      2398      2424
      2452      2477      2489      2494      2539      2657      2658      2659
      2675      2676      2677      2678      2679      2680      2984      2985
      2986      2987      2988      2989      2990      3021      3022      3023
      3024      3025      3026      3027      3433      3434      3435      3437
      3438      3439      3440      3441      3443      3444      3482      3504
      3505      3507      3508      3509      3510      3511      3512      3513
      3514      3703      3706      3707      3708      3839      3840      3841
      3842      3843      4209      4210      4211      4212      4213      4467
      4949      4950      4951      4952      4953      4954      4955      5286
      5287      5289      5290      5291      5292      5569      5570      5810
      5811      5812      5813      5814      5815      5816      5835      5836
! ... 23 like lines cut
CMBLOCK,_CM184F ,NODE,      699
(8i10)
        11        18        21        64        70        83        86       124
       125       132       136       137       149       153       164       166
       168       187       232       267       300       346       404       423
       447       457       504       509       510       526       577       611
       615       618       619       622       623       624       662       741
       745       771       788       806       845       861       865       891
       914       916       933       981       996      1034      1039      1052
      1091      1092      1093      1103      1125      1128      1130      1131
      1149      1155      1164      1219      1220      1247      1255      1265
      1583      1589      1595      1597      1602      1607      1613      1614
      1665      1727      1728      1729      1736      1738      1749      1761
      1766      1767      1768      1771      1774      1776      1793      1794
      1795      1813      1833      1841      1843      1852      1856      1860
      1867      1880      1908      1909      1912      1913      1920      1921
      1932      1933      1955      1956      1968      1969      1979      1980
      2054      2055      2062      2071      2081      2094      2109      2149
      2173      2179      2191      2200      2265      2270      2275      2294
      2304      2320      2321      2348      2374      2398      2424      2427
      2438      2452      2460      2466      2469      2477      2487      2489
      2494      2513      2535      2537      2539      2616      2617      2618
! ... 68 like lines cut
CMBLOCK,_CM186F ,NODE,      332
(8i10)
        74       106       113       146       161       279       287       299
       303       305       367       396       585       603       605       643
       654       660       690       693       696       697       742       763
       906       912       930       991      1040      1049      1057      1065
      1083      1094      1174      1184      1187      1189      1214      1228
      1274      1275      1277      1591      1621      1640      1643      1645
      1646      1650      1666      1691      1695      1739      1751      1758
      1784      1798      1869      1870      1885      1886      1887      1898
      2025      2050      2950      3053      3054      3055      3056      3057
      3058      3059      3060      3061      3198      3200      3201      3206
      3207      3210      3316      3317      3318      3319      3320      3321
      3322      3323      3367      3370      3565      3566      3567      3568
      3569      3570      3571      3572      3573      3574      3618      3667
      3668      3669      3670      3671      3672      4523      4524      4525
      4533      4534      4578      4579      4580      4581      4582      4583
      4584      4585      4586      4587      4646      4648      4649      4650
      4677      4679      4680      4681      4685      4686      4687      4688
      4689      4690      5076      5077      5078      5109      5110      5214
      5224      5226      5233      5234      5235      5236      5237      5238
      5239      5240      5438      5439      5545      5546      5547      5626
! ... 22 like lines cut
CMBLOCK,_CM188F ,NODE,      206
(8i10)
        51        56        87       228       350       383       391       454
       517       606       638       656       765       953      1082      1088
      1115      1202      1240      1349      1450      1557      1561      1563
      1610      1622      1656      1660      1664      1667      1702      1710
      1719      1773      1781      1805      1827      1864      1865      1889
      1922      1923      2282      2290      2324      2379      2402      2410
      2419      2423      2433      2729      2730      2731      2880      2886
      2896      2898      2899      2931      2932      2933      2934      2935
      2936      3151      3152      3153      3154      3155      3156      3932
      3997      4000      4002      4181      4183      4184      4185      4187
      4188      4222      4224      4978      4979      4980      4981      4982
      4983      4984      5154      5155      5156      5157      5158      5159
      5208      5209      5210      5211      5212      5421      5550      5551
      5552      5553      5554      5555      5639      5641      5687      5689
      5690      5691      5882      5883      5884      6332      6334      6479
      6482      6483      6486      6553      6554      6566      6567      6568
      6569      6570      7012      7013      7015      7016      7017      7293
      7294      7452      7453      7625      7749      7752      7935      7936
      7946      8005      8197      8243      8244      8245      8536      8537
      8538      8633      8755      8914      8915      8921      8922      8923
! ... 6 like lines cut
CMBLOCK,_CM190F ,NODE,      313
(8i10)
       117       196       205       234       253       307       359       376
       381       397       412       430       471       481       513       562
       610       637       683       692       766       778       884       898
      1036      1054      1058      1108      1188      1264      1296      1305
      1327      1382      1384      1415      1449      1468      1513      1527
      1555      1571      1592      1594      1616      1631      1641      1648
      1655      1662      1673      1674      1689      1735      1754      1765
      1777      1785      1819      1826      1828      1851      1892      1893
      2289      2299      2328      2347      2397      2400      2456      2499
      2509      3391      3392      3393      3394      3395      3396      3397
      3929      3930      3931      3933      3934      3935      3936      3995
      3996      3998      3999      4001      4003      4004      4005      4180
      4182      4186      4219      4220      4221      4223      4225      4226
      4357      4358      4359      4360      4361      4362      4363      4364
      4571      4574      4576      4700      4701      4702      4703      4704
      4705      4985      4986      5029      5030      5031      5032      5033
      5034      5035      5036      5116      5117      5118      5120      5121
      5144      5145      5146      5147      5148      5241      5242      5243
      5244      5245      5246      5247      5327      5328      5329      5330
      5331      5422      5423      5424      5640      5642      5643      5644
! ... 20 like lines cut
CMBLOCK,_CM192F ,NODE,      115
(8i10)
       286       331       500       627       668       920       929      1071
      1180      1345      1406      1432      1486      1570      1580      1601
      1606      1633      1750      1848      1895      2292      2300      2325
      2392      2451      3018      3332      3333      3334      3336      3338
      3340      3922      3924      3928      4159      4569      4572      4573
      4575      4577      4848      4849      4850      4851      4852      5119
      5218      5777      5778      5780      5782      5859      5861      6104
      6431      6432      6433      6435      6436      6625      6627      6628
      6651      6690      6691      6846      7019      7102      7163      7402
      7539      7566      7915      7916      8172      8173      8360      8389
      8390      8465      8521      8522      8524      8692      8731      8764
      8766      8768      8919      8920      8954      8957      8991      9018
      9021      9034      9127      9129      9224      9227      9252      9255
      9446      9562      9609     10385     10428     10435     10458     10461
     10462     10538     10594
CMBLOCK,_CM194F ,NODE,      142
(8i10)
        56        87       205       209       228       391       517       653
       656       839       956      1115      1240      1622      1667      1676
      1702      1704      1710      1741      1781      1805      1826      1864
      1865      2290      2295      2410      2457      2458      2531      2727
      2931      2932      2933      2934      2935      2936      3150      3151
      3152      3153      3154      3155      3156      3932      3995      3997
      4000      4002      4004      4032      4033      4034      4035      4036
      4037      4180      4181      4182      4183      4184      4185      4186
      4187      4188      4703      5066      5067      5069      5154      5157
      5159      5208      5209      5210      5211      5212      5421      5687
      5880      5881      5882      5883      5884      6552      6553      6554
      6555      6556      6567      6568      6569      6570      7279      7280
      7281      7430      7432      7633      8005      8197      8243      8244
      8245      8999      9087      9089      9090      9202      9203      9235
      9236      9237      9238      9257      9258      9332      9333      9334
      9337      9338      9353      9354      9428      9429      9457      9496
      9539      9559      9684      9685     10406     10429     10430     10431
     10445     10446     10670     10719     10796     10797
CMBLOCK,_CM196F ,NODE,       82
(8i10)
       195       196       307       376       430       513       668       673
       683       766       841      1054      1580      1592      1594      1718
      1777      3394      3921      3922      3924      3925      3926      3927
      3928      3929      3930      3933      3934      3996      3998      3999
      4003      4159      4161      4164      4168      4169      4170      4700
      4701      4702      4704      4705      5116      5117      5118      5119
      5120      5121      5324      5422      5424      5858      5859      5861
      5862      5863      6355      6625      6626      6627      6651      6654
      6655      6691      6692      7018      7019      7020      7285      7286
      8954      8956      8957      8989      8990      8991      8992      9128
      9280      9495
/gst,on,on
fini
*get,_numnode,node,0,count
*get,_numelem,elem,0,count
*get, _MAXELEMNUM, elem, 0, NUM, MAX
*get, _MAXNODENUM, node, 0, NUM, MAX
*get, _MAXELEMTYPE, etyp, 0, NUM, MAX
*get, _MAXREALCONST, real, 0, NUM, MAX
/go
/wb,load,end               !  done creating loads
/com,--- Number of total nodes = %_numnode%
/com,--- Number of contact elements = 0
/com,--- Number of spring elements = 0
/com,--- Number of bearing elements = 0
/com,--- Number of solid elements = 3138
/com,--- Number of condensed parts = 0
/com,--- Number of total elements = %_numelem%
*get,_wallbsol,active,,time,wall
/com,****************************************************************************
/com,*************************    SOLUTION       ********************************
/com,****************************************************************************
/solu
antype,0                   ! static analysis
_thickRatio=  1     ! Ratio of thick parts in the model
eqsl,pcg,1e-8,,,,,,1
cntr,print,1               ! print out contact info and also make no initial contact an error
dmpoption,emat,no             ! Don't combine emat file for DANSYS
dmpoption,esav,no             ! Don't combine esav file for DANSYS
nldiag,cont,iter           ! print out contact info each equilibrium iteration
rescontrol,,none                 ! Do not keep any restart files
/com,****************************************************
/com,******************* SOLVE FOR LS 1 OF 1 ****************
/com,**** Set Direct FE , Displacements ****
d,_CM83U,ux,4.18958644011662e-004
d,_CM83U,uy,7.75906207470848e-004
d,_CM83U,uz,-1.67023721275975e-003
d,_CM85U,ux,-1.06034238602597e-003
d,_CM85U,uy,-1.02795832141305e-003
d,_CM85U,uz,6.87025648940502e-004
d,_CM87U,ux,-1.79665696454419e-004
d,_CM87U,uy,3.95423830583605e-004
d,_CM87U,uz,-6.2277262470236e-005
d,_CM89U,ux,-1.2427172376485e-003
d,_CM89U,uy,-3.40621733673867e-004
d,_CM89U,uz,-4.12432269864994e-004
d,_CM91U,ux,-6.2560933193682e-004
d,_CM91U,uy,1.13611146953399e-003
d,_CM91U,uz,-2.73033173341219e-003
/com,**** Set Direct FE , Forces ****
f,_CM180F,fx,-8051.88681784365
f,_CM180F,fy,-4689.82352893582
f,_CM180F,fz,-4665.29972003783
f,_CM182F,fx,-256.276421241741
f,_CM182F,fy,4209.64965358314
f,_CM182F,fz,-365.540355674144
f,_CM184F,fx,-117.352587106033
f,_CM184F,fy,-1711.45554944947
f,_CM184F,fz,506.998775603393
f,_CM186F,fx,-2826.65416174234
f,_CM186F,fy,912.659734855265
f,_CM186F,fz,3527.44111427645
f,_CM188F,fx,-7012.52615804398
f,_CM188F,fy,-3586.2199737848
f,_CM188F,fz,2673.53797073743
f,_CM190F,fx,1207.13749450081
f,_CM190F,fy,-4481.86611607377
f,_CM190F,fz,-1279.64416159731
f,_CM192F,fx,-10412.6792547075
f,_CM192F,fy,758.726828182717
f,_CM192F,fz,10765.8093463957
f,_CM194F,fx,-5436.95602298662
f,_CM194F,fy,-2684.91161958523
f,_CM194F,fz,3339.54941566067
f,_CM196F,fx,14453.4540832076
f,_CM196F,fy,2793.4229368506
f,_CM196F,fz,-1520.02790360289
/nopr
/gopr
nsub,1,1,1
time,1.
outres,erase
outres,all,none
outres,nsol,last,
outres,rsol,last
outres,eangl,last
outres,etmp,last
outres,veng,last
outres,strs,last,
outres,epel,last,
outres,eppl,last,
outres,cont,last,
! *********** WB SOLVE COMMAND ***********
! check interactive state
*get,ANSINTER_,active,,int
*if,ANSINTER_,ne,0,then
/eof
*endif
solve
/com *************** Write FE CONNECTORS ********* 
CEWRITE,file,ce,,INTE
/com,****************************************************
/com,*************** FINISHED SOLVE FOR LS 1 *************
*get,_wallasol,active,,time,wall
/nopr
*get,_numnode,node,0,count
*get,_numelem,elem,0,count
*get, _MAXELEMNUM, elem, 0, NUM, MAX
*get, _MAXNODENUM, node, 0, NUM, MAX,,,INTERNAL
*get, _MAXELEMTYPE, etyp, 0, NUM, MAX
*get, _MAXREALCONST, real, 0, NUM, MAX
/gopr
*get,_PCGITER,active,,solu,cgiter
/post1
xmlo,ENCODING,ISO-8859-1
xmlo,parm
/xml,parm,xml
fini
/gopr
*get,_walldone,active,,time,wall
_preptime=(_wallbsol-_wallstrt)*3600
_solvtime=(_wallasol-_wallbsol)*3600
_posttime=(_walldone-_wallasol)*3600
_totaltim=(_walldone-_wallstrt)*3600
*get,_dlbratio,active,0,solu,dlbr
*get,_combtime,active,0,solu,comb
/com,--- Number of total nodes = %_numnode%
/com,--- Number of total elements = %_numelem%
/com,--- Element load balance ratio = %_dlbratio%
/com,--- Time to combine distributed files = %_combtime%
/wb,file,end               ! done with WB generated input
