/batch
/config,noeldb,1     ! force off writing results to database
*get,_wallstrt,active,,time,wall
! ANSYS input file written by Workbench version 2020 R1
! File used for geometry attach: C:\Users\Owner\AppData\Local\Temp\WB_DESKTOP-SDVPC46_Walther Wennholz_23228_2\unsaved_project_files\dp0\SYS\DM\SYS.scdoc
/title,unsaved_project--Static Structural
*DIM,_wb_ProjectScratch_dir,string,248
_wb_ProjectScratch_dir(1) = 'C:\Users\Owner\AppData\Local\Temp\WB_DESKTOP-SDVPC46_Walther Wennholz_23228_2\_ProjectScratch\ScrCACE\'
*DIM,_wb_SolverFiles_dir,string,248
_wb_SolverFiles_dir(1) = 'C:\Users\Owner\AppData\Local\Temp\WB_DESKTOP-SDVPC46_Walther Wennholz_23228_2\unsaved_project_files\dp0\SYS\MECH\'
*DIM,_wb_userfiles_dir,string,248
_wb_userfiles_dir(1) = 'C:\Users\Owner\AppData\Local\Temp\WB_DESKTOP-SDVPC46_Walther Wennholz_23228_2\unsaved_project_files\user_files\'
/com,--- Data in consistent BIN units. See Solving Units in the help system for more information.
/units,BIN
/nopr
/wb,file,start              !  signify a WB generated input file
/prep7
! Turn off shape checking because checks already performed inside WB mesher.
! See help system for more information.
SHPP,OFF,,NOWARN
/nolist
etcon,set             ! allow ANSYS to choose best KEYOP's for 180x elements
/com,*********** Nodes for the whole assembly ***********
nblock,3,,11885
(1i9,3e20.9e3)
        1    -1.486373253E+01    -1.266319834E+01     1.860812557E+01
        2    -1.870244196E+01    -1.796290252E+00     8.850640211E-01
        3    -1.755673733E+01    -2.822595541E+00     2.167824644E+00
        4    -1.622462097E+01    -3.732616307E+00     3.336875044E+00
        5    -1.431941853E+01    -1.212976425E+01     1.752660508E+01
        6    -1.756913920E+01    -2.049034809E+00     1.111933415E+00
        7    -1.611327816E+01    -3.001902162E+00     2.351874714E+00
        8    -1.492092454E+01    -3.837881117E+00     3.589008659E+00
        9    -1.390512801E+01    -1.164393267E+01     1.551200911E+01
       10    -1.605421512E+01    -2.404106462E+00     1.550406533E+00
       11    -1.475630799E+01    -3.328964316E+00     2.880826442E+00
       12    -1.325308123E+01    -3.499268318E+00     4.243038174E+00
       13    -1.340181559E+01    -1.063912261E+01     1.326780128E+01
       14    -1.472014961E+01    -2.740430045E+00     1.731777884E+00
       15    -1.346912083E+01    -2.676275257E+00     2.633415210E+00
       16    -1.165309629E+01    -3.098592816E+00     3.268905821E+00
       17    -1.175186582E+01    -8.916460770E+00     1.193254539E+01
       18    -1.333055196E+01    -2.325339366E+00     1.203834745E+00
       19    -1.212659265E+01    -2.547126715E+00     2.016762547E+00
       20    -9.915758835E+00    -7.962085400E+00     9.797322524E+00
! ... 10786 like lines cut
/wb,elem,start            !  set before creation of elements
/com,*********** Elements for Body 1 "SYS\Body" ***********
et,1,187
eblock,19,solid,,562
(19i9)
        1        1        1        1        0        0        0        0       10        0        1      360      396      603      604     4908     5127     4917     4918
     5128     6228
        1        1        1        1        0        0        0        0       10        0        2      118      285     1211      682     3276     4417     3290     3281
     4414     6649
        1        1        1        1        0        0        0        0       10        0        3      494      999      765      998     5717     6993     5713     5716
     7774     6992
        1        1        1        1        0        0        0        0       10        0        4      972      993      998     1214     7696     7752     7697     7699
     7754     7781
        1        1        1        1        0        0        0        0       10        0        5       11      520       81      653     2621     2972     2620     2622
     5849     2974
        1        1        1        1        0        0        0        0       10        0        6      121      918      518      201     3328     5838     3324     3320
     3857     3854
        1        1        1        1        0        0        0        0       10        0        7      169     1002      454      296     3642     5493     3636     3634
     4493     4484
        1        1        1        1        0        0        0        0       10        0        8      317      365      997     1086     4613     4958     4621     4623
     4960     7773
        1        1        1        1        0        0        0        0       10        0        9      322      786      471     1019     4670     5578     4668     4673
     7078     5584
        1        1        1        1        0        0        0        0       10        0       10       78      644      879      296     2951     6444     2952     2948
     4488     4492
! ... 1105 like lines cut
!Material Id = {4F93CB4E-FE1F-4CEB-99F6-EDA491DEAB33}
et,2,186
keyo,2,2,1          ! set full integration on SOLID186
eblock,19,solid,,2517
(19i9)
        1        2        1        1        0        0        0        0       20        0      563      738     1201      814      816     2173     2197     2119     2081
     6890     7177     7175     6887    10146    10081    10003    10004     6891     8166     7178     7185
        1        2        1        1        0        0        0        0       20        0      564      279      718      912     1295     1191      953      835     1091
     4368     6803     7539     4373     7654     7256     7257     7989     4370     6804     7254     7991
        1        2        1        1        0        0        0        0       20        0      565       85      163      195      898     1739     1843     1689     1713
     2993     3599     3816     2997     9330     9186     9184     9257     3000     3604     3819     7496
        1        2        1        1        0        0        0        0       20        0      566        5     1764     1705        9     2008     1927     1934     2087
     2589     9235     2611     2586     9619     9618     9633     9804     2590     9392     9238     2612
        1        2        1        1        0        0        0        0       20        0      567       57       61      833     1075     2381     2445     2432     2477
     2830     2853     7249     2832    10626    10713    10714    10627     2834     2855     7251     7967
        1        2        1        1        0        0        0        0       20        0      568      147      828      706      851     1898     1794     1625     1835
     3505     6750     6751     3506     9459     8985     8986     9525     3509     7240     6756     7319
        1        2        1        1        0        0        0        0       20        0      569       92      150     1087      854     2308     2393     2273     2297
     3046     3522     7328     3049    10475    10367    10366    10442     3052     3525     7985     7329
        1        2        1        1        0        0        0        0       20        0      570      517      716     1789     1731     2434     2249     1937     1936
     5825     6797     9304     5830    10294     9639     9636     9637     5831     6798     9448     9306
        1        2        1        1        0        0        0        0       20        0      571      168      988      187      906     1131      566      631      373
     3631     3764     3763     3629     6064     6060     5002     5004     3632     6063     3762     5003
        1        2        1        1        0        0        0        0       20        0      572      179     1114     1011      827     1750     1836     1868     1787
     3711     7812     7233     3710     9356     9526     9443     9355     3713     8032     7814     7236
! ... 5015 like lines cut
!Material Id = {4F93CB4E-FE1F-4CEB-99F6-EDA491DEAB33}
/wb,elem,end               !  done creating elements
/com,*********** Send User Defined Coordinate System(s) ***********
csys,0
toffst,459.67,  ! Temperature offset from absolute zero
/com,*********** Set Reference Temperature ***********
tref,71.6
/wb,mat,start              !  starting to send materials
/com,*********** Send Materials ***********
Temperature = 'TEMP' ! Temperature
MP,DENS,1,0.000734544492879577,	! slinch in^-3
MP,ALPX,1,6.66666666666667e-06,	! F^-1
MP,C,1,373722.969668162,	! in^2 s^-2 F^-1
MP,KXX,1,7.55607836445752,	! slinch in s^-3 F^-1
MP,RSVX,1,8.52348993288591,	! ohm cmil in^-1
MP,EX,1,29007547.5428236,	! slinch s^-2 in^-1
MP,NUXY,1,0.3,
MP,MURX,1,10000,

/wb,mat,end                !  done sending materials
!************************* Model Summary ********************
!SYS\Body,	Structural Steel,	matid,	1
!************************* End Model Summary ********************
! get the diagonal of the bounding box. Needed later for other things
*get,_xmin,node,,mnloc,x
*get,_ymin,node,,mnloc,y
*get,_zmin,node,,mnloc,z
*get,_xmax,node,,mxloc,x
*get,_ymax,node,,mxloc,y
*get,_zmax,node,,mxloc,z
_ASMDIAG=(_xmax-_xmin)*(_xmax-_xmin)+(_ymax-_ymin)*(_ymax-_ymin)+(_zmax-_zmin)*(_zmax-_zmin)
_ASMDIAG=SQRT(_ASMDIAG)
/wb,contact,start          !  starting to send contact
/wb,contact,end            !  done creating contacts
/com,*********** Send Named Selection as Element Component ***********
esel,s,type,,1
esel,a,type,,2
cm,ELEMENT,elem
esel,all
/com,*********** Send Named Selection as Node Component ***********
CMBLOCK,EDGE_CLOSEST,NODE,       85
(8i10)
      1534      1908      1909      1910      1911      1913      1915      1916
      1920      1921      1924      1927      1928      1931      1932      1933
      1934      1938      1941      1946      1947      1948      1949      1950
      1956      1957      1958      1959      1960      1961      1966      1967
      1968      1971      1972      1973      1974      1977      1978      1981
      1982      1985      1986      8799      9569      9570      9572      9573
      9575      9581      9582      9587      9589      9598      9599      9601
      9609      9610      9617      9618      9620      9626      9627      9630
      9631      9640      9646      9647      9656      9658      9661      9662
      9665      9676      9678      9681      9683      9693      9695      9701
      9703      9705      9711      9719      9726
/com,*********** Send Named Selection as Node Component ***********
CMBLOCK,EDGE_PLANE_1,NODE,       53
(8i10)
      1534      1546      1547      1555      1567      1571      1572      1576
      1577      1583      1586      1587      1588      1597      1598      1603
      1604      1605      1606      1609      1610      1611      1612      1613
      1614      1615      1616      8797      8826      8828      8829      8846
      8847      8874      8883      8885      8894      8895      8897      8907
      8908      8913      8915      8917      8932      8941      8943      8945
      8951      8954      8955      8958      8961
/com,*********** Send Named Selection as Node Component ***********
CMBLOCK,EDGE_PLANE_2,NODE,       59
(8i10)
      1534      1537      1539      1540      1544      1550      1551      1552
      1554      1562      1565      1566      1569      1574      1575      1580
      1581      1582      1589      1590      1591      1592      1593      1594
      1595      1596      1601      1602      1619      1620      8798      8805
      8806      8811      8812      8821      8822      8835      8836      8838
      8840      8844      8862      8863      8869      8870      8872      8878
      8890      8891      8902      8905      8919      8922      8924      8926
      8929      8938      8968
/com,*********** Send Named Selection as Node Component ***********
CMBLOCK,EDGE_PLANE_FAR,NODE,       65
(8i10)
      1535      1536      1538      1541      1542      1543      1545      1548
      1549      1553      1556      1557      1558      1559      1560      1561
      1563      1564      1568      1570      1573      1578      1579      1584
      1585      1599      1600      1607      1608      1616      1617      1618
      1619      8800      8801      8803      8808      8809      8815      8816
      8818      8824      8831      8832      8842      8849      8851      8853
      8855      8857      8858      8860      8865      8866      8876      8880
      8881      8887      8888      8899      8910      8935      8948      8963
      8966
/com,*********** Send Named Selection as Node Component ***********
CMBLOCK,EDGE_FAR_1,NODE,       77
(8i10)
      1619      1912      1914      1917      1918      1919      1922      1923
      1925      1926      1929      1930      1935      1936      1937      1939
      1940      1942      1943      1944      1945      1951      1952      1953
      1954      1955      1962      1963      1964      1965      1969      1970
      1975      1976      1979      1980      1983      1984      1986      8969
      9578      9579      9584      9585      9591      9593      9594      9596
      9603      9604      9606      9607      9612      9614      9615      9622
      9624      9634      9636      9638      9642      9644      9649      9651
      9653      9667      9668      9670      9673      9686      9688      9690
      9698      9708      9714      9721      9724
/com,*********** Send Named Selection as Node Component ***********
CMBLOCK,EDGE_FAR_2,NODE,       65
(8i10)
      1535      1536      1538      1541      1542      1543      1545      1548
      1549      1553      1556      1557      1558      1559      1560      1561
      1563      1564      1568      1570      1573      1578      1579      1584
      1585      1599      1600      1607      1608      1616      1617      1618
      1619      8800      8801      8803      8808      8809      8815      8816
      8818      8824      8831      8832      8842      8849      8851      8853
      8855      8857      8858      8860      8865      8866      8876      8880
      8881      8887      8888      8899      8910      8935      8948      8963
      8966
/golist
/wb,load,start             !  starting to send loads
/com,*********** Define Force Using Surface Effect Elements ***********
local,12,0,0.,0.,0.,0.,0.,0.
csys,0
et,3,156
keyop,3,5,1         !  No orientation node
eblock,10,,,39
(15i9)
     4324        3        3        3       12     2559     1986     9728
     4325        3        3        3       12     2528     2527    10776
     4326        3        3        3       12     2530     2528    10777
     4327        3        3        3       12     2549     2541    10793
     4328        3        3        3       12     2523     2524    10771
     4329        3        3        3       12     2550     2551    10800
     4330        3        3        3       12     2535     2540    10784
     4331        3        3        3       12     2547     2556    10798
     4332        3        3        3       12     2543     2544    10795
     4333        3        3        3       12     2533     2534    10782
     4334        3        3        3       12     2545     2531    10781
     4335        3        3        3       12     2522     2557    10770
     4336        3        3        3       12     2527     2526    10775
     4337        3        3        3       12     2552     2553    10802
     4338        3        3        3       12     2525     2546    10774
     4339        3        3        3       12     2556     2557    10804
     4340        3        3        3       12     2548     2549    10799
     4341        3        3        3       12     2537     2552    10788
     4342        3        3        3       12     2526     2523    10772
     4343        3        3        3       12     2540     2542    10792
! ... 20 like lines cut
esel,s,type,,3
keyop,3,2,1                ! Apply load in local coordinate system
keyop,3,7,1                ! Use original area so load is constant in large deformation
esel,all
/com,*********** Define Force Using Surface Effect Elements ***********
local,13,0,0.,0.,0.,0.,0.,0.
csys,0
et,4,156
keyop,4,5,1         !  No orientation node
eblock,10,,,32
(15i9)
     4363        4        4        4       13     1563     1564     8865
     4364        4        4        4       13     1570     1599     8880
     4365        4        4        4       13     1568     1584     8876
     4366        4        4        4       13     1559     1578     8855
     4367        4        4        4       13     1543     1541     8815
     4368        4        4        4       13     1541     1545     8816
     4369        4        4        4       13     1542     1543     8818
     4370        4        4        4       13     1578     1579     8899
     4371        4        4        4       13     1553     1538     8808
     4372        4        4        4       13     1579     1560     8858
     4373        4        4        4       13     1561     1568     8860
     4374        4        4        4       13     1607     1608     8948
     4375        4        4        4       13     1538     1556     8809
     4376        4        4        4       13     1560     1561     8857
     4377        4        4        4       13     1535     1542     8801
     4378        4        4        4       13     1558     1559     8853
     4379        4        4        4       13     1585     1553     8842
     4380        4        4        4       13     1608     1573     8887
     4381        4        4        4       13     1618     1619     8966
     4382        4        4        4       13     1545     1558     8824
! ... 13 like lines cut
esel,s,type,,4
keyop,4,2,1                ! Apply load in local coordinate system
keyop,4,7,1                ! Use original area so load is constant in large deformation
esel,all
/com,*********** Define Force Using Surface Effect Elements ***********
local,14,0,0.,0.,0.,0.,0.,0.
csys,0
et,5,156
keyop,5,5,1         !  No orientation node
eblock,10,,,38
(15i9)
     4395        5        5        5       14     1986     1984     9724
     4396        5        5        5       14     1937     1936     9636
     4397        5        5        5       14     1943     1942     9649
     4398        5        5        5       14     1944     1943     9651
     4399        5        5        5       14     1942     1912     9579
     4400        5        5        5       14     1975     1922     9604
     4401        5        5        5       14     1929     1914     9584
     4402        5        5        5       14     1970     1969     9698
     4403        5        5        5       14     1979     1930     9624
     4404        5        5        5       14     1969     1926     9614
     4405        5        5        5       14     1912     1917     9578
     4406        5        5        5       14     1976     1975     9708
     4407        5        5        5       14     1918     1970     9594
     4408        5        5        5       14     1953     1952     9670
     4409        5        5        5       14     1917     1925     9591
     4410        5        5        5       14     1926     1980     9615
     4411        5        5        5       14     1939     1945     9642
     4412        5        5        5       14     1914     1940     9585
     4413        5        5        5       14     1964     1963     9688
     4414        5        5        5       14     1952     1937     9638
! ... 19 like lines cut
esel,s,type,,5
keyop,5,2,1                ! Apply load in local coordinate system
keyop,5,7,1                ! Use original area so load is constant in large deformation
esel,all
/com,*********** Define Force Using Surface Effect Elements ***********
local,15,0,0.,0.,0.,0.,0.,0.
csys,0
et,6,156
keyop,6,5,1         !  No orientation node
eblock,10,,,42
(15i9)
     4433        6        6        6       15     1986     1985     9726
     4434        6        6        6       15     1927     1934     9618
     4435        6        6        6       15     1958     1957     9678
     4436        6        6        6       15     1974     1973     9705
     4437        6        6        6       15     1947     1946     9656
     4438        6        6        6       15     1908     1916     9570
     4439        6        6        6       15     1949     1978     9662
     4440        6        6        6       15     1913     1958     9582
     4441        6        6        6       15     1972     1971     9701
     4442        6        6        6       15     1921     1974     9601
     4443        6        6        6       15     1957     1956     9676
     4444        6        6        6       15     1932     1931     9626
     4445        6        6        6       15     1968     1967     9695
     4446        6        6        6       15     1961     1960     9683
     4447        6        6        6       15     1933     1959     9631
     4448        6        6        6       15     1956     1941     9647
     4449        6        6        6       15     1909     1911     9572
     4450        6        6        6       15     1981     1534     8799
     4451        6        6        6       15     1948     1947     9658
     4452        6        6        6       15     1967     1924     9610
! ... 23 like lines cut
esel,s,type,,6
keyop,6,2,1                ! Apply load in local coordinate system
keyop,6,7,1                ! Use original area so load is constant in large deformation
esel,all
/com,*********** Define Force Using Surface Effect Elements ***********
local,16,0,0.,0.,0.,0.,0.,0.
csys,0
et,7,156
keyop,7,5,1         !  No orientation node
eblock,10,,,26
(15i9)
     4475        7        7        7       16     1597     1598     8932
     4476        7        7        7       16     1610     1586     8913
     4477        7        7        7       16     1604     1615     8943
     4478        7        7        7       16     1546     1567     8826
     4479        7        7        7       16     1587     1576     8895
     4480        7        7        7       16     1572     1613     8885
     4481        7        7        7       16     1614     1611     8955
     4482        7        7        7       16     1576     1577     8894
     4483        7        7        7       16     1588     1587     8915
     4484        7        7        7       16     1547     1571     8828
     4485        7        7        7       16     1534     1546     8797
     4486        7        7        7       16     1606     1588     8917
     4487        7        7        7       16     1609     1610     8951
     4488        7        7        7       16     1611     1612     8954
     4489        7        7        7       16     1555     1605     8846
     4490        7        7        7       16     1567     1597     8874
     4491        7        7        7       16     1603     1604     8941
     4492        7        7        7       16     1613     1614     8958
     4493        7        7        7       16     1577     1603     8897
     4494        7        7        7       16     1605     1606     8945
! ... 7 like lines cut
esel,s,type,,7
keyop,7,2,1                ! Apply load in local coordinate system
keyop,7,7,1                ! Use original area so load is constant in large deformation
esel,all
/com,*********** Define Force Using Surface Effect Elements ***********
local,17,0,0.,0.,0.,0.,0.,0.
csys,0
et,8,156
keyop,8,5,1         !  No orientation node
eblock,10,,,29
(15i9)
     4501        8        8        8       17     1602     1565     8870
     4502        8        8        8       17     1575     1562     8862
     4503        8        8        8       17     1551     1539     8812
     4504        8        8        8       17     1582     1601     8905
     4505        8        8        8       17     1591     1566     8872
     4506        8        8        8       17     1592     1593     8924
     4507        8        8        8       17     1594     1591     8922
     4508        8        8        8       17     1540     1537     8805
     4509        8        8        8       17     1565     1580     8869
     4510        8        8        8       17     1596     1534     8798
     4511        8        8        8       17     1589     1590     8919
     4512        8        8        8       17     1601     1602     8938
     4513        8        8        8       17     1620     1619     8968
     4514        8        8        8       17     1580     1581     8902
     4515        8        8        8       17     1590     1550     8835
     4516        8        8        8       17     1595     1596     8929
     4517        8        8        8       17     1566     1544     8821
     4518        8        8        8       17     1544     1589     8822
     4519        8        8        8       17     1569     1552     8840
     4520        8        8        8       17     1539     1540     8811
! ... 10 like lines cut
esel,s,type,,8
keyop,8,2,1                ! Apply load in local coordinate system
keyop,8,7,1                ! Use original area so load is constant in large deformation
esel,all
/gst,on,on
fini
*get,_numnode,node,0,count
*get,_numelem,elem,0,count
*get, _MAXELEMNUM, elem, 0, NUM, MAX
*get, _MAXNODENUM, node, 0, NUM, MAX
*get, _MAXELEMTYPE, etyp, 0, NUM, MAX
*get, _MAXREALCONST, real, 0, NUM, MAX
/go
/wb,load,end               !  done creating loads
/com,--- Number of total nodes = %_numnode%
/com,--- Number of contact elements = 206
/com,--- Number of spring elements = 0
/com,--- Number of bearing elements = 0
/com,--- Number of solid elements = 3079
/com,--- Number of condensed parts = 0
/com,--- Number of total elements = %_numelem%
*get,_wallbsol,active,,time,wall
/com,****************************************************************************
/com,*************************    SOLUTION       ********************************
/com,****************************************************************************
/solu
antype,0                   ! static analysis
nlgeom,on                  ! Turn on Large Deformation Effects
_thickRatio=  1     ! Ratio of thick parts in the model
eqsl,pcg,1e-8,,,,,,1
cntr,print,1               ! print out contact info and also make no initial contact an error
nldiag,cont,iter           ! print out contact info each equilibrium iteration
rescontrol,define,last,last,,dele	   ! Program Controlled
/com,****************************************************
/com,******************* SOLVE FOR LS 1 OF 1 ****************
esel,s,type,,3
nsle
sfe,all,1,pres,1,-363.17872321934
sfe,all,2,pres,1,-515.274633384711
sfe,all,3,pres,1,-504.809848466069
esel,s,type,,4
nsle
sfe,all,1,pres,1,-47.894922613378
sfe,all,2,pres,1,-1071.08661883487
sfe,all,3,pres,1,-126.158971328041
esel,s,type,,5
nsle
sfe,all,1,pres,1,-557.124781514947
sfe,all,2,pres,1,147.987646602015
sfe,all,3,pres,1,-34.4505636380632
esel,s,type,,6
nsle
sfe,all,1,pres,1,-304.126741563222
sfe,all,2,pres,1,150.691430867594
sfe,all,3,pres,1,114.989703631306
esel,s,type,,7
nsle
sfe,all,1,pres,1,387.895626256976
sfe,all,2,pres,1,223.721247284653
sfe,all,3,pres,1,76.3760786486667
esel,s,type,,8
nsle
sfe,all,1,pres,1,49.7173156179233
sfe,all,2,pres,1,321.204820563423
sfe,all,3,pres,1,157.073389388313
nsel,all
esel,all
acel,-344282.0755579,326439.457940214,323183.226606641
/com,*** Set Displacements ***
CMBLOCK,_CM473UX_XP,NODE,       77
(8i10)
      1619      1912      1914      1917      1918      1919      1922      1923
      1925      1926      1929      1930      1935      1936      1937      1939
      1940      1942      1943      1944      1945      1951      1952      1953
      1954      1955      1962      1963      1964      1965      1969      1970
      1975      1976      1979      1980      1983      1984      1986      8969
      9578      9579      9584      9585      9591      9593      9594      9596
      9603      9604      9606      9607      9612      9614      9615      9622
      9624      9634      9636      9638      9642      9644      9649      9651
      9653      9667      9668      9670      9673      9686      9688      9690
      9698      9708      9714      9721      9724
cmsel,s,_CM473UX_XP
d,all,ux,-4.50866450339344e-003
CMBLOCK,_CM473UY_YP,NODE,       77
(8i10)
      1619      1912      1914      1917      1918      1919      1922      1923
      1925      1926      1929      1930      1935      1936      1937      1939
      1940      1942      1943      1944      1945      1951      1952      1953
      1954      1955      1962      1963      1964      1965      1969      1970
      1975      1976      1979      1980      1983      1984      1986      8969
      9578      9579      9584      9585      9591      9593      9594      9596
      9603      9604      9606      9607      9612      9614      9615      9622
      9624      9634      9636      9638      9642      9644      9649      9651
      9653      9667      9668      9670      9673      9686      9688      9690
      9698      9708      9714      9721      9724
cmsel,s,_CM473UY_YP
d,all,uy,-9.0546522872439e-003
CMBLOCK,_CM473UZ_ZP,NODE,       77
(8i10)
      1619      1912      1914      1917      1918      1919      1922      1923
      1925      1926      1929      1930      1935      1936      1937      1939
      1940      1942      1943      1944      1945      1951      1952      1953
      1954      1955      1962      1963      1964      1965      1969      1970
      1975      1976      1979      1980      1983      1984      1986      8969
      9578      9579      9584      9585      9591      9593      9594      9596
      9603      9604      9606      9607      9612      9614      9615      9622
      9624      9634      9636      9638      9642      9644      9649      9651
      9653      9667      9668      9670      9673      9686      9688      9690
      9698      9708      9714      9721      9724
cmsel,s,_CM473UZ_ZP
d,all,uz,1.17533708218818e-002
CMBLOCK,_CM475UX_XP,NODE,       53
(8i10)
      1534      1546      1547      1555      1567      1571      1572      1576
      1577      1583      1586      1587      1588      1597      1598      1603
      1604      1605      1606      1609      1610      1611      1612      1613
      1614      1615      1616      8797      8826      8828      8829      8846
      8847      8874      8883      8885      8894      8895      8897      8907
      8908      8913      8915      8917      8932      8941      8943      8945
      8951      8954      8955      8958      8961
cmsel,s,_CM475UX_XP
d,all,ux,9.41868749173988e-003
CMBLOCK,_CM475UY_YP,NODE,       53
(8i10)
      1534      1546      1547      1555      1567      1571      1572      1576
      1577      1583      1586      1587      1588      1597      1598      1603
      1604      1605      1606      1609      1610      1611      1612      1613
      1614      1615      1616      8797      8826      8828      8829      8846
      8847      8874      8883      8885      8894      8895      8897      8907
      8908      8913      8915      8917      8932      8941      8943      8945
      8951      8954      8955      8958      8961
cmsel,s,_CM475UY_YP
d,all,uy,-8.7852600711179e-004
CMBLOCK,_CM475UZ_ZP,NODE,       53
(8i10)
      1534      1546      1547      1555      1567      1571      1572      1576
      1577      1583      1586      1587      1588      1597      1598      1603
      1604      1605      1606      1609      1610      1611      1612      1613
      1614      1615      1616      8797      8826      8828      8829      8846
      8847      8874      8883      8885      8894      8895      8897      8907
      8908      8913      8915      8917      8932      8941      8943      8945
      8951      8954      8955      8958      8961
cmsel,s,_CM475UZ_ZP
d,all,uz,2.34008750796954e-002
nsel,all

/com,*** Component For All Non-Zero UX Displacements ***
cmsel,s,_CM473ux_xp
cmsel,a,_CM475ux_xp
cm,_DISPNONZEROUX,NODE
nsel,all


/com,*** Component For All Non-Zero UY Displacements ***
cmsel,s,_CM473uy_yp
cmsel,a,_CM475uy_yp
cm,_DISPNONZEROUY,NODE
nsel,all


/com,*** Component For All Non-Zero UZ Displacements ***
cmsel,s,_CM473uz_zp
cmsel,a,_CM475uz_zp
cm,_DISPNONZEROUZ,NODE
nsel,all

/nopr
/gopr
autots,on                  ! Workbench Program Controlled automatic time stepping
nsub,1,10,1                ! due to presence of general nonlinear
time,1.
outres,erase
outres,all,none
outres,nsol,last,
outres,rsol,last
outres,eangl,last
outres,etmp,last
outres,veng,last
outres,strs,last,
outres,epel,last,
outres,eppl,last,
outres,cont,last,
! *********** WB SOLVE COMMAND ***********
! check interactive state
*get,ANSINTER_,active,,int
*if,ANSINTER_,ne,0,then
/eof
*endif
solve
/com *************** Write FE CONNECTORS ********* 
CEWRITE,file,ce,,INTE
/com,****************************************************
/com,*************** FINISHED SOLVE FOR LS 1 *************
*get,_wallasol,active,,time,wall
/nopr
*get,_numnode,node,0,count
*get,_numelem,elem,0,count
*get, _MAXELEMNUM, elem, 0, NUM, MAX
*get, _MAXNODENUM, node, 0, NUM, MAX,,,INTERNAL
*get, _MAXELEMTYPE, etyp, 0, NUM, MAX
*get, _MAXREALCONST, real, 0, NUM, MAX
/gopr
*get,_PCGITER,active,,solu,cgiter
/post1
xmlo,ENCODING,ISO-8859-1
xmlo,parm
/xml,parm,xml
fini
/gopr
*get,_walldone,active,,time,wall
_preptime=(_wallbsol-_wallstrt)*3600
_solvtime=(_wallasol-_wallbsol)*3600
_posttime=(_walldone-_wallasol)*3600
_totaltim=(_walldone-_wallstrt)*3600
*get,_dlbratio,active,0,solu,dlbr
*get,_combtime,active,0,solu,comb
/com,--- Number of total nodes = %_numnode%
/com,--- Number of total elements = %_numelem%
/com,--- Element load balance ratio = %_dlbratio%
/com,--- Time to combine distributed files = %_combtime%
/wb,file,end               ! done with WB generated input
