
 ANSYS Academic Teaching Introductory              


 *------------------------------------------------------------------*
 |                                                                  |
 |   W E L C O M E   T O   T H E   A N S Y S (R)  P R O G R A M     |
 |                                                                  |
 *------------------------------------------------------------------*




 ***************************************************************
 *            ANSYS 2020 R1          LEGAL NOTICES             *
 ***************************************************************
 *                                                             *
 * Copyright 1971-2020 ANSYS, Inc.  All rights reserved.       *
 * Unauthorized use, distribution or duplication is            *
 * prohibited.                                                 *
 *                                                             *
 * Ansys is a registered trademark of ANSYS, Inc. or its       *
 * subsidiaries in the United States or other countries.       *
 * See the ANSYS, Inc. online documentation or the ANSYS, Inc. *
 * documentation CD or online help for the complete Legal      *
 * Notice.                                                     *
 *                                                             *
 ***************************************************************
 *                                                             *
 * THIS ANSYS SOFTWARE PRODUCT AND PROGRAM DOCUMENTATION       *
 * INCLUDE TRADE SECRETS AND CONFIDENTIAL AND PROPRIETARY      *
 * PRODUCTS OF ANSYS, INC., ITS SUBSIDIARIES, OR LICENSORS.    *
 * The software products and documentation are furnished by    *
 * ANSYS, Inc. or its subsidiaries under a software license    *
 * agreement that contains provisions concerning               *
 * non-disclosure, copying, length and nature of use,          *
 * compliance with exporting laws, warranties, disclaimers,    *
 * limitations of liability, and remedies, and other           *
 * provisions.  The software products and documentation may be *
 * used, disclosed, transferred, or copied only in accordance  *
 * with the terms and conditions of that software license      *
 * agreement.                                                  *
 *                                                             *
 * ANSYS, Inc. is a UL registered                              *
 * ISO 9001:2015 company.                                      *
 *                                                             *
 ***************************************************************
 *                                                             *
 * This product is subject to U.S. laws governing export and   *
 * re-export.                                                  *
 *                                                             *
 * For U.S. Government users, except as specifically granted   *
 * by the ANSYS, Inc. software license agreement, the use,     *
 * duplication, or disclosure by the United States Government  *
 * is subject to restrictions stated in the ANSYS, Inc.        *
 * software license agreement and FAR 12.212 (for non-DOD      *
 * licenses).                                                  *
 *                                                             *
 ***************************************************************

 2020 R1 
     
 Point Releases and Patches installed:   
     
 Academic Student 2020 R1
 Aqwa 2020 R1
 FENSAP-ICE 2020 R1  


          *****  ANSYS COMMAND LINE ARGUMENTS  *****
  BATCH MODE REQUESTED (-b)    = NOLIST
  INPUT FILE COPY MODE (-c)    = COPY
  SHARED MEMORY PARALLEL REQUESTED
    SINGLE PROCESS WITH SINGLE THREAD REQUESTED
    TOTAL OF     1 CORES REQUESTED
  DESIGNXPLORER REQUESTED
  INPUT FILE NAME              = C:\Users\Owner\AppData\Local\Temp\WB_DESKTOP-SDVPC46_Walther Wennholz_23228_2\_ProjectScratch\ScrCACE\dummy.dat
  OUTPUT FILE NAME             = C:\Users\Owner\AppData\Local\Temp\WB_DESKTOP-SDVPC46_Walther Wennholz_23228_2\_ProjectScratch\ScrCACE\solve.out
  START-UP FILE MODE           = NOREAD
  STOP FILE MODE               = NOREAD

 RELEASE= 2020 R1              BUILD= 20.1      UP20191203   VERSION=WINDOWS x64 
 CURRENT JOBNAME=file  02:04:22  MAY 23, 2020 CP=      0.500


 PARAMETER _DS_PROGRESS =     999.0000000    

 /INPUT FILE= ds.dat  LINE=       0



 DO NOT WRITE ELEMENT RESULTS INTO DATABASE

 *GET  _WALLSTRT  FROM  ACTI  ITEM=TIME WALL  VALUE=  2.07277778    

 TITLE= 
 unsaved_project--Static Structural                                            


 SET PARAMETER DIMENSIONS ON  _WB_PROJECTSCRATCH_DIR
  TYPE=STRI  DIMENSIONS=      248        1        1

 PARAMETER _WB_PROJECTSCRATCH_DIR(1) = C:\Users\Owner\AppData\Local\Temp\WB_DESKTOP-SDVPC46_Walther Wennholz_23228_2\_ProjectScratch\ScrCACE\

 SET PARAMETER DIMENSIONS ON  _WB_SOLVERFILES_DIR
  TYPE=STRI  DIMENSIONS=      248        1        1

 PARAMETER _WB_SOLVERFILES_DIR(1) = C:\Users\Owner\AppData\Local\Temp\WB_DESKTOP-SDVPC46_Walther Wennholz_23228_2\unsaved_project_files\dp0\SYS\MECH\

 SET PARAMETER DIMENSIONS ON  _WB_USERFILES_DIR
  TYPE=STRI  DIMENSIONS=      248        1        1

 PARAMETER _WB_USERFILES_DIR(1) = C:\Users\Owner\AppData\Local\Temp\WB_DESKTOP-SDVPC46_Walther Wennholz_23228_2\unsaved_project_files\user_files\
 --- Data in consistent BIN units. See Solving Units in the help system for more

 U.S. CUSTOMARY INCH UNITS SPECIFIED FOR INTERNAL    
  LENGTH      = INCHES (IN)
  MASS        = LBF-S**2/IN 
  TIME        = SECONDS (SEC)  
  TEMPERATURE = FAHRENHEIT
  TOFFSET     = 460.0
  FORCE       = LBF
  HEAT        = IN-LBF
  PRESSURE    = PSI (LBF/IN**2)
  ENERGY      = IN-LBF
  POWER       = IN-LBF/SEC

 INPUT  UNITS ARE ALSO SET TO BIN 

 *** ANSYS - ENGINEERING ANALYSIS SYSTEM  RELEASE 2020 R1          20.1     ***
 ANSYS Academic Teaching Introductory              
 01055371  VERSION=WINDOWS x64   02:04:22  MAY 23, 2020 CP=      0.594

 unsaved_project--Static Structural                                            



          ***** ANSYS ANALYSIS DEFINITION (PREP7) *****
 *********** Nodes for the whole assembly ***********
 *********** Elements for Body 1 "SYS\Body" ***********
 *********** Send User Defined Coordinate System(s) ***********
 *********** Set Reference Temperature ***********
 *********** Send Materials ***********
 *********** Send Named Selection as Element Component ***********
 *********** Send Named Selection as Node Component ***********
 *********** Send Named Selection as Node Component ***********
 *********** Send Named Selection as Node Component ***********
 *********** Send Named Selection as Node Component ***********
 *********** Send Named Selection as Node Component ***********
 *********** Send Named Selection as Node Component ***********
 *********** Define Force Using Surface Effect Elements ***********
 *********** Define Force Using Surface Effect Elements ***********
 *********** Define Force Using Surface Effect Elements ***********
 *********** Define Force Using Surface Effect Elements ***********
 *********** Define Force Using Surface Effect Elements ***********
 *********** Define Force Using Surface Effect Elements ***********


 ***** ROUTINE COMPLETED *****  CP =         0.656


 --- Number of total nodes = 10805
 --- Number of contact elements = 206
 --- Number of spring elements = 0
 --- Number of bearing elements = 0
 --- Number of solid elements = 3079
 --- Number of condensed parts = 0
 --- Number of total elements = 3285

 *GET  _WALLBSOL  FROM  ACTI  ITEM=TIME WALL  VALUE=  2.07277778    
 ****************************************************************************
 *************************    SOLUTION       ********************************
 ****************************************************************************

 *****  ANSYS SOLUTION ROUTINE  *****


 PERFORM A STATIC ANALYSIS
  THIS WILL BE A NEW ANALYSIS

 LARGE DEFORMATION ANALYSIS

 PARAMETER _THICKRATIO =     1.000000000    

 USE PRECONDITIONED CONJUGATE GRADIENT SOLVER
  CONVERGENCE TOLERANCE = 1.00000E-08
  MAXIMUM ITERATION     = NumNode*DofPerNode*  1.0000    

 CONTACT INFORMATION PRINTOUT LEVEL       1

 NLDIAG: Nonlinear diagnostics CONT option is set to ON. 
         Writing frequency : each ITERATION.

 DEFINE RESTART CONTROL FOR LOADSTEP LAST
 AT FREQUENCY OF LAST AND NUMBER FOR OVERWRITE IS   -1

 DELETE RESTART FILES OF ENDSTEP
 ****************************************************
 ******************* SOLVE FOR LS 1 OF 1 ****************

 SELECT       FOR ITEM=TYPE COMPONENT=    
  IN RANGE         3 TO          3 STEP          1

         39  ELEMENTS (OF       3285  DEFINED) SELECTED BY  ESEL  COMMAND.

 SELECT      ALL NODES HAVING ANY ELEMENT IN ELEMENT SET.

         79 NODES (OF      10805  DEFINED) SELECTED FROM
       39 SELECTED ELEMENTS BY NSLE COMMAND.

 SPECIFIED SURFACE LOAD PRES FOR ALL SELECTED ELEMENTS  LKEY =  1   KVAL = 1
     VALUES =    -363.18        -363.18        -363.18        -363.18    

 SPECIFIED SURFACE LOAD PRES FOR ALL SELECTED ELEMENTS  LKEY =  2   KVAL = 1
     VALUES =    -515.27        -515.27        -515.27        -515.27    

 SPECIFIED SURFACE LOAD PRES FOR ALL SELECTED ELEMENTS  LKEY =  3   KVAL = 1
     VALUES =    -504.81        -504.81        -504.81        -504.81    

 SELECT       FOR ITEM=TYPE COMPONENT=    
  IN RANGE         4 TO          4 STEP          1

         32  ELEMENTS (OF       3285  DEFINED) SELECTED BY  ESEL  COMMAND.

 SELECT      ALL NODES HAVING ANY ELEMENT IN ELEMENT SET.

         65 NODES (OF      10805  DEFINED) SELECTED FROM
       32 SELECTED ELEMENTS BY NSLE COMMAND.

 SPECIFIED SURFACE LOAD PRES FOR ALL SELECTED ELEMENTS  LKEY =  1   KVAL = 1
     VALUES =    -47.895        -47.895        -47.895        -47.895    

 SPECIFIED SURFACE LOAD PRES FOR ALL SELECTED ELEMENTS  LKEY =  2   KVAL = 1
     VALUES =    -1071.1        -1071.1        -1071.1        -1071.1    

 SPECIFIED SURFACE LOAD PRES FOR ALL SELECTED ELEMENTS  LKEY =  3   KVAL = 1
     VALUES =    -126.16        -126.16        -126.16        -126.16    

 SELECT       FOR ITEM=TYPE COMPONENT=    
  IN RANGE         5 TO          5 STEP          1

         38  ELEMENTS (OF       3285  DEFINED) SELECTED BY  ESEL  COMMAND.

 SELECT      ALL NODES HAVING ANY ELEMENT IN ELEMENT SET.

         77 NODES (OF      10805  DEFINED) SELECTED FROM
       38 SELECTED ELEMENTS BY NSLE COMMAND.

 SPECIFIED SURFACE LOAD PRES FOR ALL SELECTED ELEMENTS  LKEY =  1   KVAL = 1
     VALUES =    -557.12        -557.12        -557.12        -557.12    

 SPECIFIED SURFACE LOAD PRES FOR ALL SELECTED ELEMENTS  LKEY =  2   KVAL = 1
     VALUES =     147.99         147.99         147.99         147.99    

 SPECIFIED SURFACE LOAD PRES FOR ALL SELECTED ELEMENTS  LKEY =  3   KVAL = 1
     VALUES =    -34.451        -34.451        -34.451        -34.451    

 SELECT       FOR ITEM=TYPE COMPONENT=    
  IN RANGE         6 TO          6 STEP          1

         42  ELEMENTS (OF       3285  DEFINED) SELECTED BY  ESEL  COMMAND.

 SELECT      ALL NODES HAVING ANY ELEMENT IN ELEMENT SET.

         85 NODES (OF      10805  DEFINED) SELECTED FROM
       42 SELECTED ELEMENTS BY NSLE COMMAND.

 SPECIFIED SURFACE LOAD PRES FOR ALL SELECTED ELEMENTS  LKEY =  1   KVAL = 1
     VALUES =    -304.13        -304.13        -304.13        -304.13    

 SPECIFIED SURFACE LOAD PRES FOR ALL SELECTED ELEMENTS  LKEY =  2   KVAL = 1
     VALUES =     150.69         150.69         150.69         150.69    

 SPECIFIED SURFACE LOAD PRES FOR ALL SELECTED ELEMENTS  LKEY =  3   KVAL = 1
     VALUES =     114.99         114.99         114.99         114.99    

 SELECT       FOR ITEM=TYPE COMPONENT=    
  IN RANGE         7 TO          7 STEP          1

         26  ELEMENTS (OF       3285  DEFINED) SELECTED BY  ESEL  COMMAND.

 SELECT      ALL NODES HAVING ANY ELEMENT IN ELEMENT SET.

         53 NODES (OF      10805  DEFINED) SELECTED FROM
       26 SELECTED ELEMENTS BY NSLE COMMAND.

 SPECIFIED SURFACE LOAD PRES FOR ALL SELECTED ELEMENTS  LKEY =  1   KVAL = 1
     VALUES =     387.90         387.90         387.90         387.90    

 SPECIFIED SURFACE LOAD PRES FOR ALL SELECTED ELEMENTS  LKEY =  2   KVAL = 1
     VALUES =     223.72         223.72         223.72         223.72    

 SPECIFIED SURFACE LOAD PRES FOR ALL SELECTED ELEMENTS  LKEY =  3   KVAL = 1
     VALUES =     76.376         76.376         76.376         76.376    

 SELECT       FOR ITEM=TYPE COMPONENT=    
  IN RANGE         8 TO          8 STEP          1

         29  ELEMENTS (OF       3285  DEFINED) SELECTED BY  ESEL  COMMAND.

 SELECT      ALL NODES HAVING ANY ELEMENT IN ELEMENT SET.

         59 NODES (OF      10805  DEFINED) SELECTED FROM
       29 SELECTED ELEMENTS BY NSLE COMMAND.

 SPECIFIED SURFACE LOAD PRES FOR ALL SELECTED ELEMENTS  LKEY =  1   KVAL = 1
     VALUES =     49.717         49.717         49.717         49.717    

 SPECIFIED SURFACE LOAD PRES FOR ALL SELECTED ELEMENTS  LKEY =  2   KVAL = 1
     VALUES =     321.20         321.20         321.20         321.20    

 SPECIFIED SURFACE LOAD PRES FOR ALL SELECTED ELEMENTS  LKEY =  3   KVAL = 1
     VALUES =     157.07         157.07         157.07         157.07    

 ALL SELECT   FOR ITEM=NODE COMPONENT=    
  IN RANGE         1 TO      10805 STEP          1

      10805  NODES (OF      10805  DEFINED) SELECTED BY NSEL  COMMAND.

 ALL SELECT   FOR ITEM=ELEM COMPONENT=    
  IN RANGE         1 TO       4529 STEP          1

       3285  ELEMENTS (OF       3285  DEFINED) SELECTED BY  ESEL  COMMAND.

 ACEL=  -0.34428E+06 0.32644E+06 0.32318E+06
 *** Set Displacements ***
 CMBLOCK read of NODE component _CM473UX_XP  completed

 SELECT      COMPONENT _CM473UX_XP                     

 SPECIFIED CONSTRAINT UX   FOR SELECTED NODES            1 TO       10805 BY           1
 REAL=-4.508664503E-03   IMAG=  0.00000000    
 CMBLOCK read of NODE component _CM473UY_YP  completed

 SELECT      COMPONENT _CM473UY_YP                     

 SPECIFIED CONSTRAINT UY   FOR SELECTED NODES            1 TO       10805 BY           1
 REAL=-9.054652287E-03   IMAG=  0.00000000    
 CMBLOCK read of NODE component _CM473UZ_ZP  completed

 SELECT      COMPONENT _CM473UZ_ZP                     

 SPECIFIED CONSTRAINT UZ   FOR SELECTED NODES            1 TO       10805 BY           1
 REAL= 1.175337082E-02   IMAG=  0.00000000    
 CMBLOCK read of NODE component _CM475UX_XP  completed

 SELECT      COMPONENT _CM475UX_XP                     

 SPECIFIED CONSTRAINT UX   FOR SELECTED NODES            1 TO       10805 BY           1
 REAL= 9.418687492E-03   IMAG=  0.00000000    
 CMBLOCK read of NODE component _CM475UY_YP  completed

 SELECT      COMPONENT _CM475UY_YP                     

 SPECIFIED CONSTRAINT UY   FOR SELECTED NODES            1 TO       10805 BY           1
 REAL=-8.785260071E-04   IMAG=  0.00000000    
 CMBLOCK read of NODE component _CM475UZ_ZP  completed

 SELECT      COMPONENT _CM475UZ_ZP                     

 SPECIFIED CONSTRAINT UZ   FOR SELECTED NODES            1 TO       10805 BY           1
 REAL= 2.340087508E-02   IMAG=  0.00000000    

 ALL SELECT   FOR ITEM=NODE COMPONENT=    
  IN RANGE         1 TO      10805 STEP          1

      10805  NODES (OF      10805  DEFINED) SELECTED BY NSEL  COMMAND.
 *** Component For All Non-Zero UX Displacements ***

 SELECT      COMPONENT _CM473UX_XP                     

 ALSO SELECT COMPONENT _CM475UX_XP                     

 DEFINITION OF COMPONENT = _DISPNONZEROUX  ENTITY=NODE

 ALL SELECT   FOR ITEM=NODE COMPONENT=    
  IN RANGE         1 TO      10805 STEP          1

      10805  NODES (OF      10805  DEFINED) SELECTED BY NSEL  COMMAND.
 *** Component For All Non-Zero UY Displacements ***

 SELECT      COMPONENT _CM473UY_YP                     

 ALSO SELECT COMPONENT _CM475UY_YP                     

 DEFINITION OF COMPONENT = _DISPNONZEROUY  ENTITY=NODE

 ALL SELECT   FOR ITEM=NODE COMPONENT=    
  IN RANGE         1 TO      10805 STEP          1

      10805  NODES (OF      10805  DEFINED) SELECTED BY NSEL  COMMAND.
 *** Component For All Non-Zero UZ Displacements ***

 SELECT      COMPONENT _CM473UZ_ZP                     

 ALSO SELECT COMPONENT _CM475UZ_ZP                     

 DEFINITION OF COMPONENT = _DISPNONZEROUZ  ENTITY=NODE

 ALL SELECT   FOR ITEM=NODE COMPONENT=    
  IN RANGE         1 TO      10805 STEP          1

      10805  NODES (OF      10805  DEFINED) SELECTED BY NSEL  COMMAND.

 PRINTOUT RESUMED BY /GOP

 USE AUTOMATIC TIME STEPPING THIS LOAD STEP

 USE       1 SUBSTEPS INITIALLY THIS LOAD STEP FOR ALL  DEGREES OF FREEDOM
 FOR AUTOMATIC TIME STEPPING:
   USE     10 SUBSTEPS AS A MAXIMUM
   USE      1 SUBSTEPS AS A MINIMUM

 TIME=  1.0000    

 ERASE THE CURRENT DATABASE OUTPUT CONTROL TABLE.


 WRITE ALL  ITEMS TO THE DATABASE WITH A FREQUENCY OF NONE
   FOR ALL APPLICABLE ENTITIES

 WRITE NSOL ITEMS TO THE DATABASE WITH A FREQUENCY OF LAST
   FOR ALL APPLICABLE ENTITIES

 WRITE RSOL ITEMS TO THE DATABASE WITH A FREQUENCY OF LAST
   FOR ALL APPLICABLE ENTITIES

 WRITE EANG ITEMS TO THE DATABASE WITH A FREQUENCY OF LAST
   FOR ALL APPLICABLE ENTITIES

 WRITE ETMP ITEMS TO THE DATABASE WITH A FREQUENCY OF LAST
   FOR ALL APPLICABLE ENTITIES

 WRITE VENG ITEMS TO THE DATABASE WITH A FREQUENCY OF LAST
   FOR ALL APPLICABLE ENTITIES

 WRITE STRS ITEMS TO THE DATABASE WITH A FREQUENCY OF LAST
   FOR ALL APPLICABLE ENTITIES

 WRITE EPEL ITEMS TO THE DATABASE WITH A FREQUENCY OF LAST
   FOR ALL APPLICABLE ENTITIES

 WRITE EPPL ITEMS TO THE DATABASE WITH A FREQUENCY OF LAST
   FOR ALL APPLICABLE ENTITIES

 WRITE CONT ITEMS TO THE DATABASE WITH A FREQUENCY OF LAST
   FOR ALL APPLICABLE ENTITIES

 *GET  ANSINTER_  FROM  ACTI  ITEM=INT        VALUE=  0.00000000    

 *IF  ANSINTER_                         ( =   0.00000     )  NE  
      0                                 ( =   0.00000     )  THEN    

 *ENDIF

 *****  ANSYS SOLVE    COMMAND  *****

 *** WARNING ***                         CP =       0.688   TIME= 02:04:22
 Element shape checking is currently inactive.  Issue SHPP,ON or         
 SHPP,WARN to reactivate, if desired.                                    

 *** NOTE ***                            CP =       0.703   TIME= 02:04:22
 The model data was checked and warning messages were found.             
  Please review output or errors file (                                  
 C:\Users\Owner\AppData\Local\Temp\WB_DESKTOP-SDVPC46_Walther            
 Wennholz_23228_2\_ProjectScratch\ScrCACE\file.err ) for these warning   
 messages.                                                               

 *** SELECTION OF ELEMENT TECHNOLOGIES FOR APPLICABLE ELEMENTS ***
      --- GIVE SUGGESTIONS AND RESET THE KEY OPTIONS ---

 ELEMENT TYPE    1 IS SOLID187. IT IS NOT ASSOCIATED WITH FULLY INCOMPRESSIBLE
 HYPERELASTIC MATERIALS. NO SUGGESTION IS AVAILABLE AND NO RESETTING IS NEEDED.

 ELEMENT TYPE    2 IS SOLID186. KEYOPT(2)=0 IS SUGGESTED AND HAS BEEN RESET.
  KEYOPT(1-12)=    0    0    0    0    0    0    0    0    0    0    0    0



 *** ANSYS - ENGINEERING ANALYSIS SYSTEM  RELEASE 2020 R1          20.1     ***
 ANSYS Academic Teaching Introductory              
 01055371  VERSION=WINDOWS x64   02:04:22  MAY 23, 2020 CP=      0.703

 unsaved_project--Static Structural                                            



                       S O L U T I O N   O P T I O N S

   PROBLEM DIMENSIONALITY. . . . . . . . . . . . .3-D                  
   DEGREES OF FREEDOM. . . . . . UX   UY   UZ  
   ANALYSIS TYPE . . . . . . . . . . . . . . . . .STATIC (STEADY-STATE)
   OFFSET TEMPERATURE FROM ABSOLUTE ZERO . . . . .  459.67    
   NONLINEAR GEOMETRIC EFFECTS . . . . . . . . . .ON
   EQUATION SOLVER OPTION. . . . . . . . . . . . .PCG                
      TOLERANCE. . . . . . . . . . . . . . . . . . 1.00000E-08
   NEWTON-RAPHSON OPTION . . . . . . . . . . . . .PROGRAM CHOSEN   
   GLOBALLY ASSEMBLED MATRIX . . . . . . . . . . .SYMMETRIC  

 *** WARNING ***                         CP =       0.703   TIME= 02:04:22
 Material number 3 (used by element 4324) should normally have at least  
 one MP or one TB type command associated with it.  Output of energy by  
 material may not be available.                                          

 *** NOTE ***                            CP =       0.703   TIME= 02:04:22
 The step data was checked and warning messages were found.              
  Please review output or errors file (                                  
 C:\Users\Owner\AppData\Local\Temp\WB_DESKTOP-SDVPC46_Walther            
 Wennholz_23228_2\_ProjectScratch\ScrCACE\file.err ) for these warning   
 messages.                                                               

 *** NOTE ***                            CP =       0.703   TIME= 02:04:22
 This nonlinear analysis defaults to using the full Newton-Raphson       
 solution procedure.  This can be modified using the NROPT command.      

                      L O A D   S T E P   O P T I O N S

   LOAD STEP NUMBER. . . . . . . . . . . . . . . .     1
   TIME AT END OF THE LOAD STEP. . . . . . . . . .  1.0000    
   AUTOMATIC TIME STEPPING . . . . . . . . . . . .    ON
      INITIAL NUMBER OF SUBSTEPS . . . . . . . . .     1
      MAXIMUM NUMBER OF SUBSTEPS . . . . . . . . .    10
      MINIMUM NUMBER OF SUBSTEPS . . . . . . . . .     1
   MAXIMUM NUMBER OF EQUILIBRIUM ITERATIONS. . . .    15
   STEP CHANGE BOUNDARY CONDITIONS . . . . . . . .    NO
   STRESS-STIFFENING . . . . . . . . . . . . . . .    ON
   TERMINATE ANALYSIS IF NOT CONVERGED . . . . . .YES (EXIT)  
   CONVERGENCE CONTROLS. . . . . . . . . . . . . .USE DEFAULTS
   INERTIA LOADS                        X           Y           Z 
      ACEL . . . . . . . . . . . .-0.34428E+06 0.32644E+06 0.32318E+06
   PRINT OUTPUT CONTROLS . . . . . . . . . . . . .NO PRINTOUT
   DATABASE OUTPUT CONTROLS
      ITEM     FREQUENCY   COMPONENT
       ALL       NONE               
      NSOL       LAST               
      RSOL       LAST               
      EANG       LAST               
      ETMP       LAST               
      VENG       LAST               
      STRS       LAST               
      EPEL       LAST               
      EPPL       LAST               
      CONT       LAST               


 SOLUTION MONITORING INFO IS WRITTEN TO FILE= file.mntr                                                                                                                                                                                                                                                           
 MAXIMUM NUMBER OF EQUILIBRIUM ITERATIONS HAS BEEN MODIFIED              
  TO BE, NEQIT = 22, BY SOLUTION CONTROL LOGIC.                          


 *** NOTE ***                            CP =       1.453   TIME= 02:04:23
 The PCG solver has automatically set the level of difficulty for this   
 model to 2.                                                             


                         ***********  PRECISE MASS SUMMARY  ***********

   TOTAL RIGID BODY MASS MATRIX ABOUT ORIGIN
               Translational mass               |   Coupled translational/rotational mass
         6.1684        0.0000        0.0000     |     0.0000        76.893        94.960    
         0.0000        6.1684        0.0000     |    -76.893        0.0000       -99.129    
         0.0000        0.0000        6.1684     |    -94.960        99.129        0.0000    
     ------------------------------------------ | ------------------------------------------
                                                |         Rotational mass (inertia)
                                                |     3287.7       -1530.6        1402.9    
                                                |    -1530.6        3318.1        1355.5    
                                                |     1402.9        1355.5        3538.6    

   TOTAL MASS =  6.1684    
     The mass principal axes coincide with the global Cartesian axes

   CENTER OF MASS (X,Y,Z)=   -16.071       -15.395        12.466    

   TOTAL INERTIA ABOUT CENTER OF MASS
         867.29       -4.5629        167.17    
        -4.5629        766.53        171.74    
         167.17        171.74        483.67    

   PRINCIPAL INERTIAS =    952.84        808.73        355.93    
   ORIENTATION VECTORS OF THE INERTIA PRINCIPAL AXES IN GLOBAL CARTESIAN
     ( 0.821, 0.376, 0.430) (-0.492, 0.849, 0.195) (-0.291,-0.372, 0.881) 


  *** MASS SUMMARY BY ELEMENT TYPE ***

  TYPE      MASS
     1  0.275648    
     2   5.89271    

 Range of element maximum matrix coefficients in global coordinates
 Maximum = 683182677 at element 111.                                     
 Minimum = 10894860.4 at element 45.                                     

   *** ELEMENT MATRIX FORMULATION TIMES
     TYPE    NUMBER   ENAME      TOTAL CP  AVE CP

        1       562  SOLID187      0.109   0.000195
        2      2517  SOLID186      0.766   0.000304
        3        39  SURF156       0.000   0.000000
        4        32  SURF156       0.000   0.000000
        5        38  SURF156       0.000   0.000000
        6        42  SURF156       0.000   0.000000
        7        26  SURF156       0.000   0.000000
        8        29  SURF156       0.000   0.000000
 Time at end of element matrix formulation CP = 2.578125.                

 ALL CURRENT ANSYS DATA WRITTEN TO FILE NAME= file.rdb
  FOR POSSIBLE RESUME FROM THIS POINT
     FORCE CONVERGENCE VALUE  =  0.7537E+07  CRITERION=  0.3845E+05
 curEqn=   4064  totEqn=   4064 Job CP sec=      2.812
      Factor Done= 100% Factor Wall sec=      0.035 rate=    7313.8 Mflops
 Iteration=    10 Ratio=  0.181127     Limit=  1.000000E-08 Wall=     0.1
 Iteration=    45 Ratio=  6.481775E-04 Limit=  1.000000E-08 Wall=     0.3
 Iteration=    90 Ratio=  2.828458E-06 Limit=  1.000000E-08 Wall=     0.5

 PRECONDITIONED SOLVER CP TIME      =     0.875
 PRECONDITIONED SOLVER ELAPSED TIME =     0.910
     DISP CONVERGENCE VALUE   =  0.3569E-01  CRITERION=  0.1821E-02
    EQUIL ITER   1 COMPLETED.  NEW TRIANG MATRIX.  MAX DOF INC=  0.3569E-01
     FORCE CONVERGENCE VALUE  =  0.8304E+05  CRITERION=   2480.    
     DISP CONVERGENCE VALUE   =  0.6826E-03  CRITERION=  0.1862E-02 <<< CONVERGED
    EQUIL ITER   2 COMPLETED.  NEW TRIANG MATRIX.  MAX DOF INC=  0.6826E-03
     FORCE CONVERGENCE VALUE  =   200.8      CRITERION=   2525.     <<< CONVERGED
    >>> SOLUTION CONVERGED AFTER EQUILIBRIUM ITERATION   2

   *** ELEMENT RESULT CALCULATION TIMES
     TYPE    NUMBER   ENAME      TOTAL CP  AVE CP

        1       562  SOLID187      0.031   0.000056
        2      2517  SOLID186      0.391   0.000155
        3        39  SURF156       0.000   0.000000
        4        32  SURF156       0.000   0.000000
        5        38  SURF156       0.000   0.000000
        6        42  SURF156       0.000   0.000000
        7        26  SURF156       0.000   0.000000
        8        29  SURF156       0.000   0.000000

   *** NODAL LOAD CALCULATION TIMES
     TYPE    NUMBER   ENAME      TOTAL CP  AVE CP

        1       562  SOLID187      0.047   0.000083
        2      2517  SOLID186      0.078   0.000031
        3        39  SURF156       0.000   0.000000
        4        32  SURF156       0.000   0.000000
        5        38  SURF156       0.000   0.000000
        6        42  SURF156       0.000   0.000000
        7        26  SURF156       0.000   0.000000
        8        29  SURF156       0.000   0.000000
 *** LOAD STEP     1   SUBSTEP     1  COMPLETED.    CUM ITER =      2
 *** TIME =   1.00000         TIME INC =   1.00000    


 *** ANSYS BINARY FILE STATISTICS
  BUFFER SIZE USED= 16384
        0.438 MB WRITTEN ON ELEMENT MATRIX FILE: file.emat
       17.750 MB WRITTEN ON ELEMENT SAVED DATA FILE: file.esav
        3.688 MB WRITTEN ON RESULTS FILE: file.rst
 *************** Write FE CONNECTORS *********

 WRITE OUT CONSTRAINT EQUATIONS TO FILE= file.ce                                                                                                                                                                                                                                                             
 ****************************************************
 *************** FINISHED SOLVE FOR LS 1 *************

 *GET  _WALLASOL  FROM  ACTI  ITEM=TIME WALL  VALUE=  2.07472222    

 PRINTOUT RESUMED BY /GOP

 *GET  _PCGITER  FROM  ACTI  ITEM=SOLU CGIT  VALUE=  128.000000    

 FINISH SOLUTION PROCESSING


 ***** ROUTINE COMPLETED *****  CP =         7.172



 *** ANSYS - ENGINEERING ANALYSIS SYSTEM  RELEASE 2020 R1          20.1     ***
 ANSYS Academic Teaching Introductory              
 01055371  VERSION=WINDOWS x64   02:04:29  MAY 23, 2020 CP=      7.234

 unsaved_project--Static Structural                                            



          ***** ANSYS RESULTS INTERPRETATION (POST1) *****

 *** NOTE ***                            CP =       7.234   TIME= 02:04:29
 Reading results into the database (SET command) will update the current 
 displacement and force boundary conditions in the database with the     
 values from the results file for that load set.  Note that any          
 subsequent solutions will use these values unless action is taken to    
 either SAVE the current values or not overwrite them (/EXIT,NOSAVE).    

 Set Encoding of XML File to:ISO-8859-1

 Set Output of XML File to:
     PARM,     ,     ,     ,     ,     ,     ,     ,     ,     ,     ,     ,
         ,     ,     ,     ,     ,     ,     ,

 DATABASE WRITTEN ON FILE  parm.xml                                                                                                                                                                                                                                                            

 EXIT THE ANSYS POST1 DATABASE PROCESSOR


 ***** ROUTINE COMPLETED *****  CP =         7.250



 PRINTOUT RESUMED BY /GOP

 *GET  _WALLDONE  FROM  ACTI  ITEM=TIME WALL  VALUE=  2.07472222    

 PARAMETER _PREPTIME =     0.000000000    

 PARAMETER _SOLVTIME =     7.000000000    

 PARAMETER _POSTTIME =     0.000000000    

 PARAMETER _TOTALTIM =     7.000000000    

 *GET  _DLBRATIO  FROM  ACTI  ITEM=SOLU DLBR  VALUE=  0.00000000    

 *GET  _COMBTIME  FROM  ACTI  ITEM=SOLU COMB  VALUE=  0.00000000    
 --- Number of total nodes = 10805
 --- Number of total elements = 3285
 --- Element load balance ratio = 0
 --- Time to combine distributed files = 0

 EXIT ANSYS WITHOUT SAVING DATABASE


 NUMBER OF WARNING MESSAGES ENCOUNTERED=          2
 NUMBER OF ERROR   MESSAGES ENCOUNTERED=          0

+--------------------- A N S Y S   S T A T I S T I C S ------------------------+

Release: 2020 R1            Build: 20.1       Update: UP20191203   Platform: WINDOWS x64 
Date Run: 05/23/2020   Time: 02:04     Process ID: 12996
Operating System: Windows 10  (Build: 17763)

Processor Model: Intel(R) Core(TM) i7-7700HQ CPU @ 2.80GHz

Compiler: Intel(R) FORTRAN Compiler Version 19.0.0  (Build: 20190206)
          Intel(R) C/C++ Compiler Version 19.0.0  (Build: 20190206)
          Intel(R) Math Kernel Library Version 2019.0.3 Product Build 20190125

Number of machines requested            :    1
Total number of cores available         :    8
Number of physical cores available      :    4
Number of processes requested           :    1
Number of threads per process requested :    1
Total number of cores requested         :    1 (Shared Memory Parallel)                    

GPU Acceleration: Not Requested

Job Name: file
Input File: dummy.dat
Working Directory: C:\Users\Owner\AppData\Local\Temp\WB_DESKTOP-SDVPC46_Walther Wennholz_23228_2\_ProjectScratch\ScrCACE

Total CPU time for main thread                    :        7.6 seconds
Total CPU time summed for all threads             :        7.3 seconds

Elapsed time spent obtaining a license            :        0.6 seconds
Elapsed time spent pre-processing model (/PREP7)  :        0.1 seconds
Elapsed time spent solution - preprocessing       :        0.1 seconds
Elapsed time spent computing solution             :        6.3 seconds
Elapsed time spent solution - postprocessing      :        0.0 seconds
Elapsed time spent post-processing model (/POST1) :        0.0 seconds
 
Equation solver used                              :            PCG (symmetric)
Equation solver computational rate                :        3.1 Gflops

Maximum total memory used                         :       87.0 MB
Maximum total memory allocated                    :     2112.0 MB
Total physical memory available                   :         16 GB

Total amount of I/O written to disk               :        0.1 GB
Total amount of I/O read from disk                :        0.1 GB

+------------------ E N D   A N S Y S   S T A T I S T I C S -------------------+


 *---------------------------------------------------------------------------*
 |                                                                           |
 |                            ANSYS RUN COMPLETED                            |
 |                                                                           |
 |---------------------------------------------------------------------------|
 |                                                                           |
 | Ansys 2020 R1               Build 20.1         UP20191203     WINDOWS x64 |
 |                                                                           |
 |---------------------------------------------------------------------------|
 |                                                                           |
 | Database Requested(-db)  1024 MB    Scratch Memory Requested      1024 MB |
 | Maximum Database Used       6 MB    Maximum Scratch Memory Used     81 MB |
 |                                                                           |
 |---------------------------------------------------------------------------|
 |                                                                           |
 |        CP Time      (sec) =          7.344       Time  =  02:04:29        |
 |        Elapsed Time (sec) =          9.000       Date  =  05/23/2020      |
 |                                                                           |
 *---------------------------------------------------------------------------*
