/batch
/config,noeldb,1     ! force off writing results to database
*get,_wallstrt,active,,time,wall
! ANSYS input file written by Workbench version 2020 R1
! File used for geometry attach: C:\Users\Owner\AppData\Local\Temp\WB_DESKTOP-SDVPC46_Walther Wennholz_6748_2\unsaved_project_files\dp0\SYS\DM\SYS.scdoc
/title,working_nodal_displacement--Static Structural
*DIM,_wb_ProjectScratch_dir,string,248
_wb_ProjectScratch_dir(1) = 'D:\Ansys Simulations\Project\2D\v8_test\_ProjectScratch\Scr2078\'
*DIM,_wb_SolverFiles_dir,string,248
_wb_SolverFiles_dir(1) = 'D:\Ansys Simulations\Project\2D\v8_test\working_nodal_displacement_files\dp0\SYS\MECH\'
*DIM,_wb_userfiles_dir,string,248
_wb_userfiles_dir(1) = 'D:\Ansys Simulations\Project\2D\v8_test\working_nodal_displacement_files\user_files\'
/com,--- Data in consistent MKS units. See Solving Units in the help system for more information.
/units,MKS
/nopr
/wb,file,start              !  signify a WB generated input file
/prep7
! Turn off shape checking because checks already performed inside WB mesher.
! See help system for more information.
SHPP,OFF,,NOWARN
/nolist
etcon,set             ! allow ANSYS to choose best KEYOP's for 180x elements
/com,*********** Nodes for the whole assembly ***********
nblock,3,,13279
(1i9,3e20.9e3)
        1     3.241299322E-01    -5.011293911E-01    -3.323944406E-01
        2     3.980014265E-01    -8.498640210E-01    -6.641985411E-01
        3     2.367107828E-01    -4.486743929E-01    -2.978803223E-01
        4     3.401039154E-01    -5.398237510E-01    -3.570326239E-01
        5     3.458510829E-01    -8.272295107E-01    -5.291984004E-01
        6     2.589169337E-01    -4.688615741E-01    -3.220429184E-01
        7     2.199545802E-01    -1.011137734E+00    -2.169494709E-01
        8     3.546360881E-01    -5.803596780E-01    -3.915487582E-01
        9     2.229633262E-01    -9.688526037E-01    -2.309865129E-01
       10     2.700983976E-01    -5.085710085E-01    -3.579547163E-01
       11     2.334821594E-01    -9.971355255E-01    -2.431870468E-01
       12     3.556344284E-01    -6.010077752E-01    -4.247000841E-01
       13     2.275876423E-01    -9.522317137E-01    -2.481265185E-01
       14     2.854530691E-01    -5.484459419E-01    -3.816714860E-01
       15     2.394937195E-01    -9.781122654E-01    -2.652498637E-01
       16     3.492462000E-01    -6.412134884E-01    -4.660698830E-01
       17     2.751069459E-01    -6.625021436E-01    -3.371920023E-01
       18     2.390778219E-01    -9.359328340E-01    -2.738866024E-01
       19     2.979367377E-01    -5.865747287E-01    -4.078914443E-01
       20     2.552898798E-01    -9.615890046E-01    -2.913026827E-01
! ... 12053 like lines cut
/wb,elem,start            !  set before creation of elements
/com,*********** Elements for Body 1 "SYS\Surface" ***********
et,1,187
eblock,19,solid,,476
(19i9)
        1        1        1        1        0        0        0        0       10        0        1      249     1021     1023      252     4423     7781     4424     4418
     4446     4447
        1        1        1        1        0        0        0        0       10        0        2      205      626      530      562     4135     5663     4132     4133
     5856     5662
        1        1        1        1        0        0        0        0       10        0        3      286      794      565     1213     4678     5885     4676     4679
     6976     5887
        1        1        1        1        0        0        0        0       10        0        4      271      604      399      491     4562     5149     4557     4560
     5523     5148
        1        1        1        1        0        0        0        0       10        0        5        5      822      543      542     2938     5738     2935     2934
     5720     5714
        1        1        1        1        0        0        0        0       10        0        6      192      472      243      210     4040     4365     4030     4028
     4163     4160
        1        1        1        1        0        0        0        0       10        0        7      214      238      313      337     4181     4318     4183     4184
     4320     4817
        1        1        1        1        0        0        0        0       10        0        8      143      637      271     1025     3676     4563     3672     3678
     6362     4570
        1        1        1        1        0        0        0        0       10        0        9      179      257      342      241     3944     4465     3946     3943
     4351     4352
        1        1        1        1        0        0        0        0       10        0       10      557      941      651      960     5809     6435     5808     5811
     7527     6438
! ... 933 like lines cut
!Material Id = {36F34259-3594-42D0-BA25-B98B93A97243}
et,2,186
keyo,2,2,1          ! set full integration on SOLID186
eblock,19,solid,,2810
(19i9)
        1        2        1        1        0        0        0        0       20        0      477      483      506      504      484      992     1093     1088      994
     5495     5580     5500     5494     7694     7995     7700     7693     5498     5587     5582     5502
        1        2        1        1        0        0        0        0       20        0      478       36       41     1292     1290      316      317      525      524
     3101     3131     8634     3104     4824     4829     5640     4826     3103     3130     5642     5641
        1        2        1        1        0        0        0        0       20        0      479      469      471      472      470      825      829      831      827
     5441     5446     5443     5440     7096     7110     7102     7095     5442     5448     5451     5445
        1        2        1        1        0        0        0        0       20        0      480       65     1480     1484       70      768     1478     1482      653
     3250     9204     3272     3248     6886     9199     6451     6449     3249     9198     9209     3271
        1        2        1        1        0        0        0        0       20        0      481      669      706      704     1497      672      716      714     1503
     6516     6658     6661     6517     6524     6693     6694     6525     6515     6667     6660     9249
        1        2        1        1        0        0        0        0       20        0      482      145      298     1132     1129     1330     1326     1328     1332
     3691     4750     8121     3693     8750     8749     8756     8762     3694     4751     8132     8122
        1        2        1        1        0        0        0        0       20        0      483      200     1022     1046      253     1184     1187     1185     1182
     4107     7784     4450     4105     8302     8304     8296     8295     4108     7785     7863     4451
        1        2        1        1        0        0        0        0       20        0      484      673      759     1053     1065     1553     1743     1538     1546
     6528     6855     7889     6532     9419     9371     9370     9394     6533     6856     7890     7926
        1        2        1        1        0        0        0        0       20        0      485      117      200      152      275      833     1022      835      834
     3492     3752     3753     3495     7123     7130     7125     7122     3499     4107     3755     4595
        1        2        1        1        0        0        0        0       20        0      486      352      375      374      353      731     1291     1270      738
     4977     5056     4981     4976     6759     8581     6781     6758     4979     5059     5057     4983
! ... 5601 like lines cut
!Material Id = {36F34259-3594-42D0-BA25-B98B93A97243}
/wb,elem,end               !  done creating elements
/com,*********** Send User Defined Coordinate System(s) ***********
local,12,0,1.07930262705004,-0.727534967228298,-0.25807823956551,0.,0.,0.
local,13,0,0.868075740097088,-0.668897436762212,-0.254499625672111,0.,0.,0.
local,14,0,0.761638937736552,-0.607400356630363,-0.23599511568361,0.,0.,0.
local,15,0,0.531997895466443,-0.597524942312749,-0.22400648060997,0.,0.,0.
local,16,0,0.261974125874879,-0.52893911637117,-0.206804109460673,0.,0.,0.
local,17,0,0.81408081897995,-0.633465573950336,-0.297610325330262,0.,0.,0.
local,18,0,0.495866429093915,-0.612961759933657,-0.290114499678802,0.,0.,0.
local,19,0,0.182351250407934,-0.580757746799029,-0.277530310646816,0.,0.,0.
local,20,0,7.52323727100611e-002,-0.552201314660088,-0.262232670749447,0.,0.,0.
local,21,0,-0.158488367519554,-0.509905598353366,-0.241331001604113,0.,0.,0.
local,22,0,0.113352400653571,-7.8643048938154e-003,-5.46458286553105e-002,0.,0.,0.
local,23,0,0.272333990919071,-0.122025026320319,-0.107731762273071,0.,0.,0.
local,24,0,0.440350089594198,-0.205213511149922,-0.13799063397311,0.,0.,0.
local,25,0,0.616941655857128,-0.376895987699798,-0.185976728379945,0.,0.,0.
local,26,0,0.675285283624082,-0.642285140560261,-0.227710244816162,0.,0.,0.
local,27,0,0.613694960256152,-1.41269673466293,-0.903388493574871,0.,0.,0.
local,28,0,0.510318608339966,-1.21797123785252,-0.711108828881833,0.,0.,0.
local,29,0,0.378812113614242,-1.19848898094966,-0.496746825701269,0.,0.,0.
local,30,0,0.287924793493967,-1.17855771372436,-0.447250485183755,0.,0.,0.
local,31,0,0.268414228028418,-0.979278822406042,-0.36801600769376,0.,0.,0.
csys,0
toffst,273.15,  ! Temperature offset from absolute zero
/com,*********** Set Reference Temperature ***********
tref,22.
/wb,mat,start              !  starting to send materials
/com,*********** Send Materials ***********
Temperature = 'TEMP' ! Temperature
MP,DENS,1,7850,	! kg m^-3
MP,ALPX,1,1.2e-05,	! C^-1
MP,C,1,434,	! J kg^-1 C^-1
MP,KXX,1,60.5,	! W m^-1 C^-1
MP,RSVX,1,1.7e-07,	! kg m^3 A^-2 s^-3
MP,EX,1,200000000000,	! Pa
MP,NUXY,1,0.3,
MP,MURX,1,10000,

/wb,mat,end                !  done sending materials
!************************* Model Summary ********************
!SYS\Surface,	Structural Steel,	matid,	1
!************************* End Model Summary ********************
! get the diagonal of the bounding box. Needed later for other things
*get,_xmin,node,,mnloc,x
*get,_ymin,node,,mnloc,y
*get,_zmin,node,,mnloc,z
*get,_xmax,node,,mxloc,x
*get,_ymax,node,,mxloc,y
*get,_zmax,node,,mxloc,z
_ASMDIAG=(_xmax-_xmin)*(_xmax-_xmin)+(_ymax-_ymin)*(_ymax-_ymin)+(_zmax-_zmin)*(_zmax-_zmin)
_ASMDIAG=SQRT(_ASMDIAG)
/wb,contact,start          !  starting to send contact
/wb,contact,end            !  done creating contacts
CMBLOCK,SELECTION,NODE,      807
(8i10)
       111       112       133       138       149       150       154       223
       228       231       248       258       259       260       272       278
       281       286       434       450       451       452       453       454
       457       459       463       509       510       511       547       563
       564       565       599       600       618       675       676       677
       699       711       767       769       771       773       775       778
       783       784       787       794       798       811       878       909
       921      1045      1048      1113      1115      1125      1126      1128
      1131      1134      1136      1138      1140      1148      1149      1150
      1153      1159      1203      1206      1209      1211      1213      1216
      1219      1222      1226      1235      1237      1822      1823      1851
      1852      1853      1873      1876      1888      1898      1899      1900
      1901      1957      1970      1972      1994      1997      2000      2017
      2025      2026      2050      2052      2066      2067      2069      2073
      2078      2080      2083      2084      2085      2086      2121      2142
      2151      2167      2183      2191      2192      2193      2199      2217
      2225      2230      2237      2238      2253      2260      2261      2262
      2263      2264      2265      2266      2272      2275      2276      2280
      2281      2288      2289      2297      2298      2299      2622      2625
      2648      2651      2653      2654      2658      2659      2665      2673
! ... 81 like lines cut
CMBLOCK,SELECTION_2,NODE,      932
(8i10)
       110       114       116       121       123       128       139       156
       157       158       168       169       176       187       188       195
       198       201       203       204       211       212       213       215
       218       221       235       254       261       267       273       276
       277       289       296       301       347       348       366       435
       436       437       438       440       442       443       444       445
       446       447       456       458       460       462       464       465
       466       468       469       471       495       496       497       498
       499       500       501       502       503       505       507       508
       513       544       554       568       594       609       612       642
       674       678       679       680       681       682       692       694
       697       709       734       736       737       739       743       745
       747       750       754       756       764       777       782       788
       790       792       796       802       813       814       817       825
       829      1063      1066      1070      1074      1076      1081      1083
      1085      1087      1089      1120      1142      1144      1162      1166
      1170      1174      1232      1233      1236      1239      1247      1249
      1250      1252      1256      1258      1274      1276      1277      1279
      1542      1543      1559      1569      1578      1590      1592      1625
      1646      1665      1692      1707      1708      1733      1748      1749
! ... 97 like lines cut
CMBLOCK,SELECTION_3,NODE,      113
(8i10)
       115       127       129       159       180       193       243       367
       448       470       489       490       492       504       593       722
       824       827      1079      1123      1141      1231      2124      2143
      2153      3451      3479      3480      3482      3483      3537      3542
      3563      3564      3566      3569      3573      3575      3580      3759
      3804      3806      3953      3954      3955      3958      4032      4049
      4050      4052      4085      4093      4099      4161      4174      4177
      4360      4362      4598      4601      4603      4604      4606      4610
      4729      4958      5312      5344      5345      5383      5399      5400
      5424      5437      5438      5445      5446      5507      5516      5519
      5532      5563      5565      5580      5582      5585      5586      5591
      5914      6812      6813      6913      7069      7092      7094      7104
      7110      7957      7959      7967      7996      8092      8094      8168
      8271      8272      8461      8535      9386     10168     10181     10737
     10740
CMBLOCK,SELECTION_4,NODE,      189
(8i10)
       180       187       193       212       215       218       277       347
       348       356       366       367       471       513       692       694
       697       699       711       750       754       813       814       921
      1045      1048      1222      1226      1232      1233      1235      1236
      1237      1247      2622      2626      2648      2659      2682      2688
      2704      2722      2743      2776      2788      2811      2827      2863
      3577      3953      3954      3955      3956      3958      3998      4000
      4001      4050      4051      4052      4053      4171      4173      4175
      4178      4179      4186      4187      4188      4189      4190      4202
      4203      4204      4205      4206      4265      4363      4614      4615
      4616      4617      4957      4958      4959      4960      4961      4993
      4995      5006      5009      5037      5039      5042      5441      5447
      6611      6612      6613      6615      6620      6621      6623      6631
      6632      6633      6637      6638      6639      6640      6682      6683
      6684      6685      6811      6814      6821      6822      6823      6837
      6838      7053      7055      7057      7058      7059      7291      7412
      7455      7456      7457      7860      7861      7869      7870      8423
      8433      8435      8444      8445      8446      8462      8463      8464
      8465      8466      8471      8472      8473      8474      8475      8476
      8477      8479      8505      8506      8507     11573     11574     11575
! ... 4 like lines cut
CMBLOCK,SELECTION_5,NODE,      230
(8i10)
       132       186       194       244       256       287       298       305
       306       307       308       309       416       417       419       421
       422       423       514       515       516       517       528       529
       530       531       569       572       579       614       615       617
       623       627       640      1398      1407      1420      1438      1440
      1442      1496      2481      2593      2923      2924      2943      3534
      3595      3596      3597      3598      3599      3600      3601      3602
      3603      3655      3656      3690      3691      3692      3990      3991
      3992      3993      3994      3995      3996      4055      4056      4057
      4058      4059      4060      4061      4062      4063      4134      4145
      4146      4147      4366      4367      4368      4369      4370      4371
      4372      4458      4459      4460      4661      4665      4666      4680
      4681      4682      4683      4684      4685      4749      4751      4769
      4773      4774      4778      4779      4780      4781      4782      4783
      4784      4785      4786      4787      4788      4789      4790      4791
      4792      4793      4794      4795      4796      4797      4798      4799
      4800      4801      4804      4805      5218      5228      5229      5230
      5232      5233      5234      5239      5240      5244      5245      5246
      5248      5252      5256      5610      5611      5612      5614      5616
      5617      5618      5619      5620      5621      5622      5623      5626
! ... 9 like lines cut
CMBLOCK,SELECTION_6,NODE,      723
(8i10)
       126       140       153       166       183       189       196       197
       199       210       234       242       283       294       295       299
       359       360       361       368       369       370       371       439
       449       455       467       472       473       480       481       482
       484       485       486       488       493       506       512       519
       552       605       608       613       616       673       684       718
       720       724       735       740       744       748       751       752
       753       755       765       776       815       819       831       832
       989       991       996       998      1002      1004      1010      1012
      1049      1051      1053      1055      1057      1059      1065      1067
      1072      1088      1143      1176      1229      1241      1243      1246
      1254      1259      1260      1261      1262      1264      1271      1273
      1275      1278      1280      1281      1283      1284      1286      1287
      1289      1295      1537      1541      1568      1593      1613      1648
      1664      1676      1697      1723      1729      1788      1802      1806
      1814      1926      1927      1930      1931      1938      1941      1944
      1949      1950      1951      1956      1967      1996      2007      2021
      2045      2054      2070      2082      2096      2110      2113      2114
      2117      2141      2145      2166      2211      2222      2254      2273
      2290      2291      2610      2611      2614      2637      2638      2675
! ... 71 like lines cut
CMBLOCK,SELECTION_7,NODE,       72
(8i10)
       126       299       368       519      1231      1239      1249      1250
      1252      1256      1258      1271      1274      2625      2685      2706
      2726      3557      3559      3561      3959      4075      4078      4100
      4102      4172      4174      4176      4752      4753      4754      5038
      5040      5041      5044      5045      5608      5609      5628      5629
      5859      6844      8459      8460      8467      8478      8483      8484
      8485      8490      8511      8512      8513      8514      8515      8516
      8517      8521      8522      8523      8524      8534      8535      8536
      8593     10309     10401     10460     11586     11587     11589     11791

CMBLOCK,SELECTION_8,NODE,       41
(8i10)
      1317      1411      1462      1471      2314      2315      2344      2407
      2449      2486      2531      2533      2594      3010      3011      3012
      4806      5664      8718      8719      9017      9161      9162      9181
     10961     10962     10963     10964     10965     10966     11056     11237
     11238     11239     11240     11393     11405     11406     11416     11514
     11523
CMBLOCK,SELECTION_9,NODE,        2
(8i10)
     11348     11350
CMBLOCK,SELECTION_10,NODE,      128
(8i10)
      1033      1314      1326      1330      1335      1340      1368      1829
      1835      1842      1849      1874      2337      2351      2352      2356
      2363      2364      2369      2374      2385      2403      2405      2438
      2443      2444      2450      2463      2493      2500      2501      2514
      2518      2540      2549      2555      2563      2573      2601      7819
      7820      7821      7822      7823      8706      8709      8735      8741
      8750      8752      8758      8762      8763      8764      8765      8771
      8779      8780      8781      8787      8796      8802      8806      8813
      8883      9056      9080      9086      9092      9432      9972      9973
      9974      9989      9990     10004     10005     10021     10069     10070
     10071     10957     11034     11035     11036     11037     11057     11059
     11078     11079     11080     11081     11082     11083     11084     11085
     11095     11096     11097     11114     11115     11116     11117     11118
     11131     11132     11133     11134     11147     11178     11179     11228
     11230     11233     11284     11324     11336     11337     11338     11371
     11372     11428     11429     11442     11463     11471     11472     11490

CMBLOCK,SELECTION_11,NODE,      502
(8i10)
       285       288       586       589       610       621       635       647
       892       895       896       897       898       900       902       904
       905       908       910       911       918       926       927       928
       933       936       940       942       945      1020      1028      1032
      1034      1043      1044      1047      1050      1052      1217      1220
      1224      1227      1401      1437      1444      1447      1451      1533
      1534      1539      1547      1550      1554      1562      1563      1574
      1575      1583      1585      1587      1601      1605      1630      1682
      1724      1740      1781      1818      1826      1840      1844      1864
      1894      1895      1907      1917      1932      1936      1939      1943
      1946      1954      1961      1968      1974      1975      1991      1993
      2001      2004      2014      2023      2034      2039      2042      2074
      2093      2115      2127      2128      2137      2144      2155      2180
      2198      2205      2216      2220      2226      2242      2271      2277
      2278      2307      2362      2418      2461      4668      4669      4670
      4671      4672      4673      4674      4687      4688      4689      4723
      4726      4762      4763      6031      6032      6033      6034      6035
      6036      6037      6038      6039      6040      6041      6042      6043
      6044      6045      6046      6047      6048      6049      6050      6060
      6061      6062      6063      6064      6065      6066      6067      6068
! ... 43 like lines cut
CMBLOCK,SELECTION_12,NODE,      349
(8i10)
       546       557       574       577       641       651       851       854
       855       856       857       860       862       866       868       871
       873       875       879       881       882       884       886       888
       891       893       934       935       937       938       939       941
       943       948       949       953       955       960       962      1007
      1564      1582      1696      1739      1810      1838      1839      1847
      1867      1929      1935      1960      1973      1989      1990      1992
      2011      2022      2048      2058      2059      2060      2061      2068
      2095      2100      2101      2138      2154      2158      2160      2161
      2163      2164      2179      2181      2185      2213      2219      2224
      2232      4420      4442      4445      5091      5747      5748      5749
      5750      5751      5752      5753      5754      5755      5756      5757
      5806      5807      5808      5809      5810      5811      5812      5935
      5938      5940      5950      5951      5953      5955      5956      5970
      5971      5972      5973      5974      5975      5976      5977      5978
      5979      5980      5981      5982      5983      5984      6069      6375
      6376      6377      6378      6379      6401      6405      6435      6436
      6437      6438      6439      6440      6441      6442      6443      6444
      6445      6446      7189      7190      7191      7193      7197      7198
      7201      7202      7203      7206      7207      7208      7210      7211
! ... 24 like lines cut
CMBLOCK,SELECTION_13,NODE,       92
(8i10)
       826       828       840       842       867       869       986      2002
      2005      2013      2016      2027      2035      2049      2065      2077
      2109      2112      2148      2149      2159      2178      2184      2228
      6083      6084      7036      7038      7048      7052      7098      7099
      7101      7105      7107      7108      7109      7139      7147      7148
      7150      7154      7155      7156      7157      7158      7231      7234
      7242      7244      7251      7252      7253      7254      7255      7256
      7263      7588      7665      7667      7674      7676      7682     10405
     10406     10407     10408     10415     10417     10438     10440     10441
     10449     10450     10451     10484     10485     10502     10503     10504
     10527     10545     10546     10587     10588     10589     10681     10689
     10719     10728     10747     10784
CMBLOCK,SELECTION_14,NODE,      670
(8i10)
       111       112       116       138       139       150       154       157
       158       198       223       231       258       259       272       286
       296       301       440       442       443       444       445       446
       447       448       450       451       452       453       454       455
       456       457       458       459       460       462       463       464
       466       510       511       547       554       564       565       594
       600       612       618       679       681       722       734       736
       737       739       743       745       748       764       767       769
       771       773       775       776       777       778       782       783
       784       787       788       790       792       794       796       798
       802       811       817       824      1203      1206      1209      1211
      1213      1216      1219      1925      1926      1928      1942      1957
      1972      1994      1997      1999      2017      2026      2050      2052
      2054      2066      2067      2069      2073      2083      2085      2086
      2110      2118      2129      2141      2142      2143      2153      2156
      2171      2172      2183      2192      2193      2195      2199      2202
      2203      2218      2222      2225      2230      2234      2253      2262
      2264      2266      2288      2289      2651      2729      2745      2840
      3453      3454      3455      3456      3457      3458      3459      3460
      3461      3462      3463      3464      3465      3466      3467      3482
! ... 64 like lines cut
CMBLOCK,SELECTION_15,NODE,      154
(8i10)
       146       192       205       310       362       363       364       418
       420       474       475       518       562       757       760       830
      1061      1093      1130      1151      1152      1178      1180      1566
      1693      1721      1722      1787      1820      1886      2631      2681
      2742      2844      2931      2932      2955      2957      3629      3647
      3651      3696      3698      3700      3701      3703      3758      3938
      3940      4028      4036      4037      4040      4041      4042      4045
      4101      4130      4131      4133      4162      4323      4324      4327
      4335      4383      4384      4390      4730      4803      4808      4811
      4812      4814      4999      5002      5008      5010      5011      5014
      5016      5017      5019      5022      5023      5024      5025      5027
      5028      5029      5030      5031      5032      5033      5236      5237
      5238      5449      5452      5457      5604      5625      5627      5856
      6237      6241      6846      6859      7061      7062      7115      7116
      7862      7864      7912      7913      7914      8101      8124      8135
      8148      8167      8169      8195      8196      8197      8199      8278
      8283      8284      8289      8291      8300      8454      9324      9326
      9368      9387      9461      9462      9612      9765      9823      9866
      9868      9950      9951     11524     11610     11613     11780     11781
     11911     11936
CMBLOCK,SELECTION_16,NODE,     1169
(8i10)
         2         5        38        40        45        47        48        49
        50        51        52        53        54        55        56        57
        58        59        60        61        62        63        65        67
        68        70        72        74        77        79        80        81
        82        83        84        85        86        87        88        89
        90        91        92        93        94        95        96        97
        99       100       101       102       103       104       105       106
       107       109       250       270       319       320       321       322
       349       350       377       378       542       550       556       558
       561       580       606       638       645       653       654       655
       656       658       660       665       667       669       672       702
       704       706       710       714       716       719       721       723
       725       726       729       768       822       823       874      1212
      1225      1457      1465      1466      1470      1474      1476      1478
      1480      1482      1484      1487      1488      1489      1492      1493
      1494      1497      1498      1499      1502      1503      1504      1505
      1506      1965      1966      1969      1971      1981      1983      1998
      2010      2012      2030      2037      2055      2063      2079      2139
      2174      2175      2182      2204      2241      2247      2251      2252
      2256      2257      2258      2259      2285      2286      2302      2303
! ... 127 like lines cut
CMBLOCK,SELECTION_17,NODE,      843
(8i10)
        15        20        23        25        28        30        31        33
        35        36        37        39        41        43        46        64
        66        69        71        73        75        76        78       144
       177       185       220       225       227       230       232       239
       247       262       269       290       300       314       315       316
       317       318       331       332       333       334       335       336
       337       351       352       353       354       355       357       372
       373       374       375       376       520       521       522       523
       524       525       543       585       643       646       649       657
       659       661       662       663       664       668       670       700
       707       727       728       730       731       732       738       741
       749       770       844       846       876       920       923       925
      1266      1268      1270      1272      1282      1285      1288      1290
      1291      1292      1293      1294      1297      1299      1301      1449
      1450      1452      1453      1454      1456      1460      1463      1468
      1472      1940      1953      1982      2071      2072      2076      2087
      2088      2089      2090      2107      2108      2146      2209      2210
      2240      2255      2292      2293      2308      2309      2316      2317
      2318      2320      2333      2373      2376      2398      2400      2401
      2402      2419      2430      2431      2437      2469      2472      2485
! ... 86 like lines cut
CMBLOCK,SELECTION_18,NODE,        1
(8i10)
     12065
CMBLOCK,SELECTION_19,NODE,        1
(8i10)
     11443
CMBLOCK,SELECTION_20,NODE,      192
(8i10)
        15        18        20        23        25        28        30        33
        35        37        39        45       643      1445      1449      1453
      1456      1460      1463      2359      2419      2420      2437      2494
      2509      2511      2512      2552      2576      2587      2595      2627
      2634      2684      2687      2690      2701      2736      2741      2759
      2778      2785      2795      2796      2882      2889      2895      2898
      2899      2900      2974      2986      2987      2996      2997      2998
      2999      3013      3014      3015      3017      3018      3022      3023
      3024      3025      3037      3038      3039      3040      3042      3043
      3047      3048      3049      3050      3051      3062      3063      3064
      3065      3067      3068      3072      3073      3074      3075      3076
      3087      3088      3089      3091      3092      3096      3097      3098
      3099      3100      3106      3107      3108      3110      3111      3118
      3119      3120      3121      3122      3141      3150      3152      3153
      5998      5999      6394      6395      6396      6397      6398      9115
      9116      9126      9127      9137      9138      9145      9146      9156
      9157      9164     11103     11104     11106     11146     11277     11278
     11279     11280     11281     11282     11321     11322     11323     11430
     11431     11432     11433     11444     11452     11456     11457     11458
     11459     11460     11501     11502     11518     11521     11594     11595
! ... 4 like lines cut

/golist
/wb,load,start             !  starting to send loads
/com,*********** Create Direct FE , Displacements ****
CMBLOCK,_CM98U  ,NODE,      807
(8i10)
       111       112       133       138       149       150       154       223
       228       231       248       258       259       260       272       278
       281       286       434       450       451       452       453       454
       457       459       463       509       510       511       547       563
       564       565       599       600       618       675       676       677
       699       711       767       769       771       773       775       778
       783       784       787       794       798       811       878       909
       921      1045      1048      1113      1115      1125      1126      1128
      1131      1134      1136      1138      1140      1148      1149      1150
      1153      1159      1203      1206      1209      1211      1213      1216
      1219      1222      1226      1235      1237      1822      1823      1851
      1852      1853      1873      1876      1888      1898      1899      1900
      1901      1957      1970      1972      1994      1997      2000      2017
      2025      2026      2050      2052      2066      2067      2069      2073
      2078      2080      2083      2084      2085      2086      2121      2142
      2151      2167      2183      2191      2192      2193      2199      2217
      2225      2230      2237      2238      2253      2260      2261      2262
      2263      2264      2265      2266      2272      2275      2276      2280
      2281      2288      2289      2297      2298      2299      2622      2625
      2648      2651      2653      2654      2658      2659      2665      2673
! ... 81 like lines cut
CMBLOCK,_CM100U ,NODE,      932
(8i10)
       110       114       116       121       123       128       139       156
       157       158       168       169       176       187       188       195
       198       201       203       204       211       212       213       215
       218       221       235       254       261       267       273       276
       277       289       296       301       347       348       366       435
       436       437       438       440       442       443       444       445
       446       447       456       458       460       462       464       465
       466       468       469       471       495       496       497       498
       499       500       501       502       503       505       507       508
       513       544       554       568       594       609       612       642
       674       678       679       680       681       682       692       694
       697       709       734       736       737       739       743       745
       747       750       754       756       764       777       782       788
       790       792       796       802       813       814       817       825
       829      1063      1066      1070      1074      1076      1081      1083
      1085      1087      1089      1120      1142      1144      1162      1166
      1170      1174      1232      1233      1236      1239      1247      1249
      1250      1252      1256      1258      1274      1276      1277      1279
      1542      1543      1559      1569      1578      1590      1592      1625
      1646      1665      1692      1707      1708      1733      1748      1749
! ... 97 like lines cut
CMBLOCK,_CM102U ,NODE,      113
(8i10)
       115       127       129       159       180       193       243       367
       448       470       489       490       492       504       593       722
       824       827      1079      1123      1141      1231      2124      2143
      2153      3451      3479      3480      3482      3483      3537      3542
      3563      3564      3566      3569      3573      3575      3580      3759
      3804      3806      3953      3954      3955      3958      4032      4049
      4050      4052      4085      4093      4099      4161      4174      4177
      4360      4362      4598      4601      4603      4604      4606      4610
      4729      4958      5312      5344      5345      5383      5399      5400
      5424      5437      5438      5445      5446      5507      5516      5519
      5532      5563      5565      5580      5582      5585      5586      5591
      5914      6812      6813      6913      7069      7092      7094      7104
      7110      7957      7959      7967      7996      8092      8094      8168
      8271      8272      8461      8535      9386     10168     10181     10737
     10740
CMBLOCK,_CM104U ,NODE,      189
(8i10)
       180       187       193       212       215       218       277       347
       348       356       366       367       471       513       692       694
       697       699       711       750       754       813       814       921
      1045      1048      1222      1226      1232      1233      1235      1236
      1237      1247      2622      2626      2648      2659      2682      2688
      2704      2722      2743      2776      2788      2811      2827      2863
      3577      3953      3954      3955      3956      3958      3998      4000
      4001      4050      4051      4052      4053      4171      4173      4175
      4178      4179      4186      4187      4188      4189      4190      4202
      4203      4204      4205      4206      4265      4363      4614      4615
      4616      4617      4957      4958      4959      4960      4961      4993
      4995      5006      5009      5037      5039      5042      5441      5447
      6611      6612      6613      6615      6620      6621      6623      6631
      6632      6633      6637      6638      6639      6640      6682      6683
      6684      6685      6811      6814      6821      6822      6823      6837
      6838      7053      7055      7057      7058      7059      7291      7412
      7455      7456      7457      7860      7861      7869      7870      8423
      8433      8435      8444      8445      8446      8462      8463      8464
      8465      8466      8471      8472      8473      8474      8475      8476
      8477      8479      8505      8506      8507     11573     11574     11575
! ... 4 like lines cut
CMBLOCK,_CM106U ,NODE,      230
(8i10)
       132       186       194       244       256       287       298       305
       306       307       308       309       416       417       419       421
       422       423       514       515       516       517       528       529
       530       531       569       572       579       614       615       617
       623       627       640      1398      1407      1420      1438      1440
      1442      1496      2481      2593      2923      2924      2943      3534
      3595      3596      3597      3598      3599      3600      3601      3602
      3603      3655      3656      3690      3691      3692      3990      3991
      3992      3993      3994      3995      3996      4055      4056      4057
      4058      4059      4060      4061      4062      4063      4134      4145
      4146      4147      4366      4367      4368      4369      4370      4371
      4372      4458      4459      4460      4661      4665      4666      4680
      4681      4682      4683      4684      4685      4749      4751      4769
      4773      4774      4778      4779      4780      4781      4782      4783
      4784      4785      4786      4787      4788      4789      4790      4791
      4792      4793      4794      4795      4796      4797      4798      4799
      4800      4801      4804      4805      5218      5228      5229      5230
      5232      5233      5234      5239      5240      5244      5245      5246
      5248      5252      5256      5610      5611      5612      5614      5616
      5617      5618      5619      5620      5621      5622      5623      5626
! ... 9 like lines cut
CMBLOCK,_CM108U ,NODE,      723
(8i10)
       126       140       153       166       183       189       196       197
       199       210       234       242       283       294       295       299
       359       360       361       368       369       370       371       439
       449       455       467       472       473       480       481       482
       484       485       486       488       493       506       512       519
       552       605       608       613       616       673       684       718
       720       724       735       740       744       748       751       752
       753       755       765       776       815       819       831       832
       989       991       996       998      1002      1004      1010      1012
      1049      1051      1053      1055      1057      1059      1065      1067
      1072      1088      1143      1176      1229      1241      1243      1246
      1254      1259      1260      1261      1262      1264      1271      1273
      1275      1278      1280      1281      1283      1284      1286      1287
      1289      1295      1537      1541      1568      1593      1613      1648
      1664      1676      1697      1723      1729      1788      1802      1806
      1814      1926      1927      1930      1931      1938      1941      1944
      1949      1950      1951      1956      1967      1996      2007      2021
      2045      2054      2070      2082      2096      2110      2113      2114
      2117      2141      2145      2166      2211      2222      2254      2273
      2290      2291      2610      2611      2614      2637      2638      2675
! ... 71 like lines cut
CMBLOCK,_CM110U ,NODE,       72
(8i10)
       126       299       368       519      1231      1239      1249      1250
      1252      1256      1258      1271      1274      2625      2685      2706
      2726      3557      3559      3561      3959      4075      4078      4100
      4102      4172      4174      4176      4752      4753      4754      5038
      5040      5041      5044      5045      5608      5609      5628      5629
      5859      6844      8459      8460      8467      8478      8483      8484
      8485      8490      8511      8512      8513      8514      8515      8516
      8517      8521      8522      8523      8524      8534      8535      8536
      8593     10309     10401     10460     11586     11587     11589     11791

CMBLOCK,_CM112U ,NODE,       41
(8i10)
      1317      1411      1462      1471      2314      2315      2344      2407
      2449      2486      2531      2533      2594      3010      3011      3012
      4806      5664      8718      8719      9017      9161      9162      9181
     10961     10962     10963     10964     10965     10966     11056     11237
     11238     11239     11240     11393     11405     11406     11416     11514
     11523
CMBLOCK,_CM114U ,NODE,        2
(8i10)
     11348     11350
CMBLOCK,_CM116U ,NODE,      128
(8i10)
      1033      1314      1326      1330      1335      1340      1368      1829
      1835      1842      1849      1874      2337      2351      2352      2356
      2363      2364      2369      2374      2385      2403      2405      2438
      2443      2444      2450      2463      2493      2500      2501      2514
      2518      2540      2549      2555      2563      2573      2601      7819
      7820      7821      7822      7823      8706      8709      8735      8741
      8750      8752      8758      8762      8763      8764      8765      8771
      8779      8780      8781      8787      8796      8802      8806      8813
      8883      9056      9080      9086      9092      9432      9972      9973
      9974      9989      9990     10004     10005     10021     10069     10070
     10071     10957     11034     11035     11036     11037     11057     11059
     11078     11079     11080     11081     11082     11083     11084     11085
     11095     11096     11097     11114     11115     11116     11117     11118
     11131     11132     11133     11134     11147     11178     11179     11228
     11230     11233     11284     11324     11336     11337     11338     11371
     11372     11428     11429     11442     11463     11471     11472     11490

/com,*********** Create Direct FE , Forces ****
CMBLOCK,_CM147F ,NODE,      502
(8i10)
       285       288       586       589       610       621       635       647
       892       895       896       897       898       900       902       904
       905       908       910       911       918       926       927       928
       933       936       940       942       945      1020      1028      1032
      1034      1043      1044      1047      1050      1052      1217      1220
      1224      1227      1401      1437      1444      1447      1451      1533
      1534      1539      1547      1550      1554      1562      1563      1574
      1575      1583      1585      1587      1601      1605      1630      1682
      1724      1740      1781      1818      1826      1840      1844      1864
      1894      1895      1907      1917      1932      1936      1939      1943
      1946      1954      1961      1968      1974      1975      1991      1993
      2001      2004      2014      2023      2034      2039      2042      2074
      2093      2115      2127      2128      2137      2144      2155      2180
      2198      2205      2216      2220      2226      2242      2271      2277
      2278      2307      2362      2418      2461      4668      4669      4670
      4671      4672      4673      4674      4687      4688      4689      4723
      4726      4762      4763      6031      6032      6033      6034      6035
      6036      6037      6038      6039      6040      6041      6042      6043
      6044      6045      6046      6047      6048      6049      6050      6060
      6061      6062      6063      6064      6065      6066      6067      6068
! ... 43 like lines cut
CMBLOCK,_CM149F ,NODE,      349
(8i10)
       546       557       574       577       641       651       851       854
       855       856       857       860       862       866       868       871
       873       875       879       881       882       884       886       888
       891       893       934       935       937       938       939       941
       943       948       949       953       955       960       962      1007
      1564      1582      1696      1739      1810      1838      1839      1847
      1867      1929      1935      1960      1973      1989      1990      1992
      2011      2022      2048      2058      2059      2060      2061      2068
      2095      2100      2101      2138      2154      2158      2160      2161
      2163      2164      2179      2181      2185      2213      2219      2224
      2232      4420      4442      4445      5091      5747      5748      5749
      5750      5751      5752      5753      5754      5755      5756      5757
      5806      5807      5808      5809      5810      5811      5812      5935
      5938      5940      5950      5951      5953      5955      5956      5970
      5971      5972      5973      5974      5975      5976      5977      5978
      5979      5980      5981      5982      5983      5984      6069      6375
      6376      6377      6378      6379      6401      6405      6435      6436
      6437      6438      6439      6440      6441      6442      6443      6444
      6445      6446      7189      7190      7191      7193      7197      7198
      7201      7202      7203      7206      7207      7208      7210      7211
! ... 24 like lines cut
CMBLOCK,_CM151F ,NODE,       92
(8i10)
       826       828       840       842       867       869       986      2002
      2005      2013      2016      2027      2035      2049      2065      2077
      2109      2112      2148      2149      2159      2178      2184      2228
      6083      6084      7036      7038      7048      7052      7098      7099
      7101      7105      7107      7108      7109      7139      7147      7148
      7150      7154      7155      7156      7157      7158      7231      7234
      7242      7244      7251      7252      7253      7254      7255      7256
      7263      7588      7665      7667      7674      7676      7682     10405
     10406     10407     10408     10415     10417     10438     10440     10441
     10449     10450     10451     10484     10485     10502     10503     10504
     10527     10545     10546     10587     10588     10589     10681     10689
     10719     10728     10747     10784
CMBLOCK,_CM153F ,NODE,      670
(8i10)
       111       112       116       138       139       150       154       157
       158       198       223       231       258       259       272       286
       296       301       440       442       443       444       445       446
       447       448       450       451       452       453       454       455
       456       457       458       459       460       462       463       464
       466       510       511       547       554       564       565       594
       600       612       618       679       681       722       734       736
       737       739       743       745       748       764       767       769
       771       773       775       776       777       778       782       783
       784       787       788       790       792       794       796       798
       802       811       817       824      1203      1206      1209      1211
      1213      1216      1219      1925      1926      1928      1942      1957
      1972      1994      1997      1999      2017      2026      2050      2052
      2054      2066      2067      2069      2073      2083      2085      2086
      2110      2118      2129      2141      2142      2143      2153      2156
      2171      2172      2183      2192      2193      2195      2199      2202
      2203      2218      2222      2225      2230      2234      2253      2262
      2264      2266      2288      2289      2651      2729      2745      2840
      3453      3454      3455      3456      3457      3458      3459      3460
      3461      3462      3463      3464      3465      3466      3467      3482
! ... 64 like lines cut
CMBLOCK,_CM155F ,NODE,      154
(8i10)
       146       192       205       310       362       363       364       418
       420       474       475       518       562       757       760       830
      1061      1093      1130      1151      1152      1178      1180      1566
      1693      1721      1722      1787      1820      1886      2631      2681
      2742      2844      2931      2932      2955      2957      3629      3647
      3651      3696      3698      3700      3701      3703      3758      3938
      3940      4028      4036      4037      4040      4041      4042      4045
      4101      4130      4131      4133      4162      4323      4324      4327
      4335      4383      4384      4390      4730      4803      4808      4811
      4812      4814      4999      5002      5008      5010      5011      5014
      5016      5017      5019      5022      5023      5024      5025      5027
      5028      5029      5030      5031      5032      5033      5236      5237
      5238      5449      5452      5457      5604      5625      5627      5856
      6237      6241      6846      6859      7061      7062      7115      7116
      7862      7864      7912      7913      7914      8101      8124      8135
      8148      8167      8169      8195      8196      8197      8199      8278
      8283      8284      8289      8291      8300      8454      9324      9326
      9368      9387      9461      9462      9612      9765      9823      9866
      9868      9950      9951     11524     11610     11613     11780     11781
     11911     11936
CMBLOCK,_CM157F ,NODE,     1169
(8i10)
         2         5        38        40        45        47        48        49
        50        51        52        53        54        55        56        57
        58        59        60        61        62        63        65        67
        68        70        72        74        77        79        80        81
        82        83        84        85        86        87        88        89
        90        91        92        93        94        95        96        97
        99       100       101       102       103       104       105       106
       107       109       250       270       319       320       321       322
       349       350       377       378       542       550       556       558
       561       580       606       638       645       653       654       655
       656       658       660       665       667       669       672       702
       704       706       710       714       716       719       721       723
       725       726       729       768       822       823       874      1212
      1225      1457      1465      1466      1470      1474      1476      1478
      1480      1482      1484      1487      1488      1489      1492      1493
      1494      1497      1498      1499      1502      1503      1504      1505
      1506      1965      1966      1969      1971      1981      1983      1998
      2010      2012      2030      2037      2055      2063      2079      2139
      2174      2175      2182      2204      2241      2247      2251      2252
      2256      2257      2258      2259      2285      2286      2302      2303
! ... 127 like lines cut
CMBLOCK,_CM159F ,NODE,      843
(8i10)
        15        20        23        25        28        30        31        33
        35        36        37        39        41        43        46        64
        66        69        71        73        75        76        78       144
       177       185       220       225       227       230       232       239
       247       262       269       290       300       314       315       316
       317       318       331       332       333       334       335       336
       337       351       352       353       354       355       357       372
       373       374       375       376       520       521       522       523
       524       525       543       585       643       646       649       657
       659       661       662       663       664       668       670       700
       707       727       728       730       731       732       738       741
       749       770       844       846       876       920       923       925
      1266      1268      1270      1272      1282      1285      1288      1290
      1291      1292      1293      1294      1297      1299      1301      1449
      1450      1452      1453      1454      1456      1460      1463      1468
      1472      1940      1953      1982      2071      2072      2076      2087
      2088      2089      2090      2107      2108      2146      2209      2210
      2240      2255      2292      2293      2308      2309      2316      2317
      2318      2320      2333      2373      2376      2398      2400      2401
      2402      2419      2430      2431      2437      2469      2472      2485
! ... 86 like lines cut
CMBLOCK,_CM161F ,NODE,        1
(8i10)
     12065
CMBLOCK,_CM163F ,NODE,        1
(8i10)
     11443
CMBLOCK,_CM165F ,NODE,      192
(8i10)
        15        18        20        23        25        28        30        33
        35        37        39        45       643      1445      1449      1453
      1456      1460      1463      2359      2419      2420      2437      2494
      2509      2511      2512      2552      2576      2587      2595      2627
      2634      2684      2687      2690      2701      2736      2741      2759
      2778      2785      2795      2796      2882      2889      2895      2898
      2899      2900      2974      2986      2987      2996      2997      2998
      2999      3013      3014      3015      3017      3018      3022      3023
      3024      3025      3037      3038      3039      3040      3042      3043
      3047      3048      3049      3050      3051      3062      3063      3064
      3065      3067      3068      3072      3073      3074      3075      3076
      3087      3088      3089      3091      3092      3096      3097      3098
      3099      3100      3106      3107      3108      3110      3111      3118
      3119      3120      3121      3122      3141      3150      3152      3153
      5998      5999      6394      6395      6396      6397      6398      9115
      9116      9126      9127      9137      9138      9145      9146      9156
      9157      9164     11103     11104     11106     11146     11277     11278
     11279     11280     11281     11282     11321     11322     11323     11430
     11431     11432     11433     11444     11452     11456     11457     11458
     11459     11460     11501     11502     11518     11521     11594     11595
! ... 4 like lines cut

/gst,on,on
fini
*get,_numnode,node,0,count
*get,_numelem,elem,0,count
*get, _MAXELEMNUM, elem, 0, NUM, MAX
*get, _MAXNODENUM, node, 0, NUM, MAX
*get, _MAXELEMTYPE, etyp, 0, NUM, MAX
*get, _MAXREALCONST, real, 0, NUM, MAX
/go
/wb,load,end               !  done creating loads
/com,--- Number of total nodes = %_numnode%
/com,--- Number of contact elements = 0
/com,--- Number of spring elements = 0
/com,--- Number of bearing elements = 0
/com,--- Number of solid elements = 3286
/com,--- Number of condensed parts = 0
/com,--- Number of total elements = %_numelem%
*get,_wallbsol,active,,time,wall
/com,****************************************************************************
/com,*************************    SOLUTION       ********************************
/com,****************************************************************************
/solu
antype,0                   ! static analysis
_thickRatio=  1     ! Ratio of thick parts in the model
eqsl,pcg,1e-8,,,,,,1
cntr,print,1               ! print out contact info and also make no initial contact an error
nldiag,cont,iter           ! print out contact info each equilibrium iteration
rescontrol,,none                 ! Do not keep any restart files
/com,****************************************************
/com,******************* SOLVE FOR LS 1 OF 1 ****************
/com,**** Set Direct FE , Displacements ****
d,_CM98U,ux,1.19343598106502e-003
d,_CM98U,uy,-1.56382252710597e-003
d,_CM98U,uz,1.16526417941797e-004
d,_CM100U,ux,8.12662669497521e-004
d,_CM100U,uy,-8.05683037837964e-004
d,_CM100U,uz,-3.19640186284616e-004
d,_CM102U,ux,-1.01704380468673e-004
d,_CM102U,uy,-5.79275737660865e-004
d,_CM102U,uz,9.71126593270284e-004
d,_CM104U,ux,1.12314163570913e-003
d,_CM104U,uy,2.77097977109268e-004
d,_CM104U,uz,2.18424893072993e-004
d,_CM106U,ux,-3.04319996751084e-004
d,_CM106U,uy,1.46831567157795e-005
d,_CM106U,uz,-1.03986486194646e-003
d,_CM108U,ux,-1.08649345103982e-003
d,_CM108U,uy,4.83720290514868e-004
d,_CM108U,uz,8.00161541613622e-004
d,_CM110U,ux,-9.83712892891192e-004
d,_CM110U,uy,1.39017039881251e-004
d,_CM110U,uz,1.15865434502069e-003
d,_CM112U,ux,-2.559573720791e-003
d,_CM112U,uy,1.12923978305311e-004
d,_CM112U,uz,3.9072322048827e-004
d,_CM114U,ux,4.33464802186638e-004
d,_CM114U,uy,1.75456108520828e-003
d,_CM114U,uz,-1.24039656919349e-003
d,_CM116U,ux,1.72383490651278e-003
d,_CM116U,uy,4.99024005137172e-004
d,_CM116U,uz,5.25889313790591e-004
/com,**** Set Direct FE , Forces ****
f,_CM147F,fx,8.01368581336361e-002
f,_CM147F,fy,-0.149627086188162
f,_CM147F,fz,0.153743807814003
f,_CM149F,fx,8.95550885879971e-003
f,_CM149F,fy,6.77588072999782e-002
f,_CM149F,fz,-0.101238648666936
f,_CM151F,fx,-1.33606328136983
f,_CM151F,fy,1.15243268695646e-002
f,_CM151F,fz,0.129443906746226
f,_CM153F,fx,-0.218910710760478
f,_CM153F,fy,0.132198310705494
f,_CM153F,fz,-0.178473563581024
f,_CM155F,fx,-3.35279541906213e-002
f,_CM155F,fy,0.352085726374734
f,_CM155F,fz,0.298386095086706
f,_CM157F,fx,-8.46551242422807e-002
f,_CM157F,fy,2.05892189012145e-002
f,_CM157F,fz,-8.05583409696813e-002
f,_CM159F,fx,3.56523298961051e-002
f,_CM159F,fy,-8.45359540484636e-002
f,_CM159F,fz,-2.67087857785107e-002
f,_CM161F,fx,-85.4704375828383
f,_CM161F,fy,75.7229060023625
f,_CM161F,fz,100.309546918015
f,_CM163F,fx,54.4301720701142
f,_CM163F,fy,109.693617517605
f,_CM163F,fz,-23.3653346581821
f,_CM165F,fx,-0.37977874329063
f,_CM165F,fy,0.210265454126899
f,_CM165F,fz,0.290340115586011
/nopr
/gopr
nsub,1,1,1
time,1.
outres,erase
outres,all,none
outres,nsol,last,
outres,rsol,last
outres,eangl,last
outres,etmp,last
outres,veng,last
outres,strs,last,
outres,epel,last,
outres,eppl,last,
outres,cont,last,
! *********** WB SOLVE COMMAND ***********
! check interactive state
*get,ANSINTER_,active,,int
*if,ANSINTER_,ne,0,then
/eof
*endif
solve
/com *************** Write FE CONNECTORS ********* 
CEWRITE,file,ce,,INTE
/com,****************************************************
/com,*************** FINISHED SOLVE FOR LS 1 *************
*get,_wallasol,active,,time,wall
/nopr
*get,_numnode,node,0,count
*get,_numelem,elem,0,count
*get, _MAXELEMNUM, elem, 0, NUM, MAX
*get, _MAXNODENUM, node, 0, NUM, MAX,,,INTERNAL
*get, _MAXELEMTYPE, etyp, 0, NUM, MAX
*get, _MAXREALCONST, real, 0, NUM, MAX
/gopr
*get,_PCGITER,active,,solu,cgiter
/post1
xmlo,ENCODING,ISO-8859-1
xmlo,parm
/xml,parm,xml
fini
/gopr
*get,_walldone,active,,time,wall
_preptime=(_wallbsol-_wallstrt)*3600
_solvtime=(_wallasol-_wallbsol)*3600
_posttime=(_walldone-_wallasol)*3600
_totaltim=(_walldone-_wallstrt)*3600
*get,_dlbratio,active,0,solu,dlbr
*get,_combtime,active,0,solu,comb
/com,--- Number of total nodes = %_numnode%
/com,--- Number of total elements = %_numelem%
/com,--- Element load balance ratio = %_dlbratio%
/com,--- Time to combine distributed files = %_combtime%
/wb,file,end               ! done with WB generated input
