ASSIGN dbc='attempt_BC_2.xdb',
unit=40 unformated delete
SOL 101
TIME 10000
CEND
  TITLE = D:\Ansys Simulations\Project\2D\v9_test\attempt_BC_2.nas
  ECHO = NONE
  DISPLACEMENT(PLOT) = ALL
  STRESS(PLOT) = ALL
  SPC = 1
  LOAD = 3
BEGIN BULK
PARAM, WTMASS,1.00000 
PARAM, POST, 0
$ CORD SYS ------------------------------
CORD2R  12      0       -0.44799-1.089900.21982 -0.44799-1.089901.21982         
        0.55201 -1.089900.21982 
CORD2R  13      0       -0.35183-0.953960.22313 -0.35183-0.953961.22313         
        0.64817 -0.953960.22313 
CORD2R  14      0       -0.21517-0.827640.22387 -0.21517-0.827641.22387         
        0.78483 -0.827640.22387 
CORD2R  15      0       -0.05587-0.497490.22543 -0.05587-0.497491.22543         
        0.94413 -0.497490.22543 
CORD2R  16      0       -0.01057-0.419350.22847 -0.01057-0.419351.22847         
        0.98943 -0.419350.22847 
CORD2R  17      0       -1.42311-0.561750.44662 -1.42311-0.561751.44662         
        -0.42311-0.561750.44662 
CORD2R  18      0       -1.21719-0.530190.40664 -1.21719-0.530191.40664         
        -0.21719-0.530190.40664 
CORD2R  19      0       -1.18109-0.452350.37529 -1.18109-0.452351.37529         
        -0.18109-0.452350.37529 
CORD2R  20      0       -0.87401-0.417920.36396 -0.87401-0.417921.36396         
        0.12599 -0.417920.36396 
CORD2R  21      0       -0.64287-0.366440.32643 -0.64287-0.366441.32643         
        0.35713 -0.366440.32643 
$ Materials ------------------------------
MAT1    1       2.000+11        0.30000 7850.0001.200-0522.00000                
                                        
$ Properties ------------------------------
PSOLID  1       1               TWO             FULL                            
PSOLID  2       1               TWO             FULL                            
$ NODES ------------------------------
GRID    1       0       -0.31810-0.201370.11011 0       
GRID    2       0       -0.07732-0.378440.45777 0       
GRID    3       0       -0.32157-0.202400.15421 0       
GRID    4       0       -0.27695-0.173170.08842 0       
GRID    5       0       -0.25090-0.198720.04568 0       
GRID    6       0       -0.07364-0.356010.50067 0       
GRID    7       0       -0.27377-0.166230.04545 0       
GRID    8       0       -0.28504-0.205060.19941 0       
GRID    9       0       -0.26907-0.177900.12526 0       
GRID    10      0       -0.06811-0.333750.54469 0       
GRID    11      0       -0.26207-0.179330.16133 0       
GRID    12      0       -0.04943-0.248850.64893 0       
GRID    13      0       -0.23899-0.160960.12953 0       
GRID    14      0       -0.05543-0.260830.62923 0       
GRID    15      0       -0.06066-0.302640.58562 0       
GRID    16      0       -0.25418-0.161910.10743 0       
GRID    17      0       -0.05910-0.270670.64821 0       
GRID    18      0       -0.06412-0.295260.62649 0       
GRID    19      0       -0.02230-0.672450.02527 0       
GRID    20      0       -0.06470-0.288350.65361 0       
$ ... 12228 like lines cut
$ ELEMENTS ------------------------------
$ ANSYS: Combin14 (longitudinal)
$ ANSYS: Combin14 (coincident)
$ ANSYS: Combin250
$ ANSYS: Link180
$ ANSYS: Beam188
$ ANSYS: Shell 181
$ ANSYS: Shell 281
$ ANSYS: Solid 185
$ ANSYS: Solid 186
CHEXA   508     2       514     850     1032    1029    2705    2795            
        2729    2890    5757    7505    8274    5758    5763    7508            
        8291    8279    11902   11967   11969   11904           
CHEXA   509     2       821     824     1608    1609    2562    2558            
        2590    2501    7362    7375    9605    7365    7367    7376            
        9606    9608    11621   11622   11545   11544           
CHEXA   510     2       494     740     525     537     1617    1065            
        1038    1611    5618    5829    5828    5617    5621    7017            
        5831    5896    8432    8319    8321    9611            
CHEXA   511     2       553     1225    718     633     2720    2728            
        2663    2652    5980    6912    6471    5978    5982    8938            
        6913    6475    11944   11773   11738   11739           
CHEXA   512     2       252     260     1360    355     263     270             
        268     266     4158    4195    4692    4160    4159    4193            
        4230    4220    4206    4228    4218    4205            
CHEXA   513     2       192     218     220     199     502     971             
        521     1289    3885    4011    3918    3884    3886    4013            
        4022    3919    5687    5804    5806    5689            
CHEXA   514     2       257     259     474     520     313     316             
        314     311     4181    4191    5499    4183    4182    4190            
        4428    4415    4423    4426    4414    4413            
CHEXA   515     2       259     261     319     316     1809    1877            
        1723    1808    4189    4198    4434    4190    4192    4200            
        4447    4435    10129   9931    9929    10126           
CHEXA   516     2       737     906     1033    1291    1498    1503            
        819     1501    7000    7806    8292    7001    7004    7808            
        7351    9107    9454    7353    7352    9453            
CHEXA   517     2       688     1237    827     832     2837    2898            
        2783    2742    6750    7390    7387    6749    6752    8966            
        7394    7413    12187   12105   12005   12006           
CHEXA   518     2       345     946     1574    1005    402     1555            
        792     1348    4604    7983    8193    4605    4600    7982            
        7236    8191    5046    7235    7233    5045            
CHEXA   519     2       347     1542    404     1620    2891    2727            
        2734    2907    4634    5056    5057    4635    4636    9522            
        5058    9626    11964   11962   11983   12231           
CHEXA   520     2       108     110     253     251     1786    1853            
        1761    1789    3483    3492    4154    3484    3486    3494            
        4165    4157    10088   10029   10028   10086           
CHEXA   521     2       245     295     298     247     924     293             
        296     1170    4128    4343    4139    4127    4129    4335            
        4346    4140    4337    4336    4349    7871            
CHEXA   522     2       14      18      15      940     2393    2400            
        2525    2351    3007    3012    3014    3010    3011    3029            
        3016    7966    11275   11296   11147   11146           
CHEXA   523     2       84      189     1430    532     1107    1554            
        1440    982     3373    3868    5871    3375    3376    3869            
        9352    5867    8562    9371    8098    8094            
CHEXA   524     2       456     878     588     1267    1697    1709            
        1849    1780    5394    6195    6197    5397    5399    7654            
        6199    9046    9849    9890    10072   9850            
CHEXA   525     2       207     225     228     209     631     1020            
        1050    334     3954    4043    3962    3953    3955    4045            
        4058    3964    6461    8244    4517    4514            
CHEXA   526     2       985     1234    1630    1572    1158    1251            
        1526    1525    8110    8958    9557    8114    8108    8957            
        9500    9498    8748    9007    9497    8749            
CHEXA   527     2       996     1459    997     1167    1576    1293            
        998     1343    8161    8167    8166    8159    8162    9113            
        8165    8777    9114    8169    8170    9205            
$ ... 5304 like lines cut
CPENTA  2296    2       500     954     505     1365    680     1330            
        5674    5708    5670    5676    6713    5710    6716    6715            
        9188                                                            
CPENTA  2297    2       516     982     1107    1139    1184    704             
        5774    8094    5776    5777    8095    6833    8672    6835            
        6834                                                            
CPENTA  2298    2       445     515     580     566     1280    1214            
        5327    5765    5329    5328    5768    6134    6056    8906            
        6055                                                            
CPENTA  2299    2       517     838     886     733     1156    960             
        5780    7436    5784    5779    7438    7683    6981    8025            
        6979                                                            
CPENTA  2300    2       400     1586    1451    1166    939     1378            
        5031    9391    5029    5025    7962    9280    7959    7961            
        8775                                                            
CPENTA  2301    2       39      1457    46      42      1097    44              
        3133    3174    3130    3129    8533    3164    3156    3166            
        3152                                                            
CPENTA  2302    2       853     1549    854     1246    1286    1250            
        7534    7537    7527    7531    9091    7536    8990    9004            
        8989                                                            
CPENTA  2303    2       517     733     977     1543    1492    1530            
        5779    6980    5785    5789    6984    8082    9447    9446            
        9503                                                            
CPENTA  2304    2       865     2226    943     1128    2075    942             
        7599    7975    7595    7596    10678   7970    8632    7973            
        7971                                                            
CPENTA  2305    2       478     1404    1079    2714    2829    2653            
        5520    8479    5519    5522    9320    8481    11927   11744           
        11742                                                           
CPENTA  2306    2       863     1552    1134    1601    1550    1058            
        7589    8659    7586    7590    9532    8402    9533    8405            
        8406                                                            
CPENTA  2307    2       990     2701    2751    1667    1987    1988            
        8133    11891   8134    8132    10394   10396   9753    10393           
        9754                                                            
CPENTA  2308    2       1492    1530    1543    2926    2667    2828            
        9446    9503    9447    9448    9504    9523    11786   11785           
        12178                                                           
CPENTA  2309    2       39      1256    1457    42      664     1097            
        3132    9023    3133    3129    6636    8533    3155    6635            
        3156                                                            
CPENTA  2310    2       445     580     515     1168    1367    853             
        5329    5765    5327    5332    6135    5767    8779    7533            
        7530                                                            
CPENTA  2311    2       187     1383    1080    214     1443    756             
        3858    8482    3856    3855    9288    7082    3989    7083            
        3987                                                            
CPENTA  2312    2       338     391     439     1568    563     1177            
        4541    4966    4542    4547    4968    5296    6041    6039            
        8802                                                            
CPENTA  2313    2       187     1198    190     1521    1440    1554            
        3857    3874    3854    3859    8869    3877    9370    9371            
        9489                                                            
CPENTA  2314    2       673     841     835     2726    2939    2885            
        6682    7424    6681    6685    7468    7427    11961   12227           
        11960                                                           
CPENTA  2315    2       421     1596    952     811     1125    481             
        5174    8002    5171    5170    8624    5537    7317    5538            
        5536                                                            
$ ... 150 like lines cut
$ Boundary Conditions ------------------------------
$ DOF BCs (SPCs) 
SPC     1       19      1       0.00000 
SPCD    3       19      1       0.00094 
SPC     1       19      2       0.00000 
SPCD    3       19      2       0.00059 
SPC     1       19      3       0.00000 
SPCD    3       19      3       0.00137 
SPC     1       26      1       0.00000 
SPCD    3       26      1       0.00094 
SPC     1       26      2       0.00000 
SPCD    3       26      2       0.00059 
SPC     1       26      3       0.00000 
SPCD    3       26      3       0.00137 
SPC     1       35      1       0.00000 
SPCD    3       35      1       0.00094 
SPC     1       35      2       0.00000 
SPCD    3       35      2       0.00059 
SPC     1       35      3       0.00000 
SPCD    3       35      3       0.00137 
SPC     1       36      1       0.00000 
SPCD    3       36      1       0.00094 
SPC     1       36      2       0.00000 
SPCD    3       36      2       0.00059 
SPC     1       36      3       0.00000 
SPCD    3       36      3       0.00137 
SPC     1       84      1       0.00000 
SPCD    3       84      1       0.00094 
SPC     1       84      2       0.00000 
SPCD    3       84      2       0.00059 
SPC     1       84      3       0.00000 
SPCD    3       84      3       0.00137 
SPC     1       187     1       0.00000 
SPCD    3       187     1       -1.24-05
SPC     1       187     2       0.00000 
SPCD    3       187     2       -0.00139
SPC     1       187     3       0.00000 
SPCD    3       187     3       -0.00092
SPC     1       189     1       0.00000 
SPCD    3       189     1       0.00094 
SPC     1       189     2       0.00000 
SPCD    3       189     2       0.00059 
$ ... 16274 like lines cut
$ Force BCs 
FORCE   3       400     0       1.00000 0.30872 -0.13741-0.28804
FORCE   3       448     0       1.00000 -0.38467-0.347880.44933 
FORCE   3       462     0       1.00000 -2.861652.86681 0.12275 
FORCE   3       470     0       1.00000 -0.38467-0.347880.44933 
FORCE   3       485     0       1.00000 -0.38467-0.347880.44933 
FORCE   3       529     0       1.00000 0.30872 -0.13741-0.28804
FORCE   3       530     0       1.00000 0.30872 -0.13741-0.28804
FORCE   3       531     0       1.00000 0.30872 -0.13741-0.28804
FORCE   3       565     0       1.00000 -0.38467-0.347880.44933 
FORCE   3       583     0       1.00000 -0.38467-0.347880.44933 
FORCE   3       603     0       1.00000 -2.861652.86681 0.12275 
FORCE   3       620     0       1.00000 -0.009342.30652 -2.96591
FORCE   3       625     0       1.00000 0.30872 -0.13741-0.28804
FORCE   3       639     0       1.00000 -0.009342.30652 -2.96591
FORCE   3       641     0       1.00000 -0.009342.30652 -2.96591
FORCE   3       692     0       1.00000 0.30872 -0.13741-0.28804
FORCE   3       860     0       1.00000 -0.009342.30652 -2.96591
FORCE   3       865     0       1.00000 -0.38467-0.347880.44933 
FORCE   3       930     0       1.00000 -0.38467-0.347880.44933 
FORCE   3       934     0       1.00000 -0.38467-0.347880.44933 
$ ... 675 like lines cut
ENDDATA
