/batch
/config,noeldb,1     ! force off writing results to database
*get,_wallstrt,active,,time,wall
! ANSYS input file written by Workbench version 2020 R1
! File used for geometry attach: C:\Users\Owner\AppData\Local\Temp\WB_DESKTOP-SDVPC46_Walther Wennholz_21644_2\unsaved_project_files\dp0\SYS\DM\SYS.scdoc
/title,unsaved_project--Static Structural
*DIM,_wb_ProjectScratch_dir,string,248
_wb_ProjectScratch_dir(1) = 'C:\Users\Owner\AppData\Local\Temp\WB_DESKTOP-SDVPC46_Walther Wennholz_21644_2\_ProjectScratch\ScrD479\'
*DIM,_wb_SolverFiles_dir,string,248
_wb_SolverFiles_dir(1) = 'C:\Users\Owner\AppData\Local\Temp\WB_DESKTOP-SDVPC46_Walther Wennholz_21644_2\unsaved_project_files\dp0\SYS\MECH\'
*DIM,_wb_userfiles_dir,string,248
_wb_userfiles_dir(1) = 'C:\Users\Owner\AppData\Local\Temp\WB_DESKTOP-SDVPC46_Walther Wennholz_21644_2\unsaved_project_files\user_files\'
/com,--- Data in consistent MKS units. See Solving Units in the help system for more information.
/units,MKS
/nopr
/wb,file,start              !  signify a WB generated input file
/prep7
! Turn off shape checking because checks already performed inside WB mesher.
! See help system for more information.
SHPP,OFF,,NOWARN
/nolist
etcon,set             ! allow ANSYS to choose best KEYOP's for 180x elements
/com,*********** Nodes for the whole assembly ***********
nblock,3,,13472
(1i9,3e20.9e3)
        1    -3.180959449E-01    -2.013705169E-01     1.101140632E-01
        2    -7.732132398E-02    -3.784372319E-01     4.577728969E-01
        3    -3.215717847E-01    -2.023955208E-01     1.542064291E-01
        4    -2.769494808E-01    -1.731713913E-01     8.842375442E-02
        5    -2.509012604E-01    -1.987188654E-01     4.567923310E-02
        6    -7.364068704E-02    -3.560076562E-01     5.006702184E-01
        7    -2.737746843E-01    -1.662341633E-01     4.545149137E-02
        8    -2.850362773E-01    -2.050574923E-01     1.994112761E-01
        9    -2.690743288E-01    -1.779015272E-01     1.252560069E-01
       10    -6.811426044E-02    -3.337473567E-01     5.446941741E-01
       11    -2.620687937E-01    -1.793257298E-01     1.613271269E-01
       12    -4.942776278E-02    -2.488489155E-01     6.489339592E-01
       13    -2.389901631E-01    -1.609558534E-01     1.295294046E-01
       14    -5.543052488E-02    -2.608329291E-01     6.292272222E-01
       15    -6.065544470E-02    -3.026379062E-01     5.856238069E-01
       16    -2.541752921E-01    -1.619068989E-01     1.074268530E-01
       17    -5.910038692E-02    -2.706672386E-01     6.482050370E-01
       18    -6.412385037E-02    -2.952633189E-01     6.264929785E-01
       19    -2.230219016E-02    -6.724481754E-01     2.526681130E-02
       20    -6.469994989E-02    -2.883529446E-01     6.536110816E-01
! ... 12229 like lines cut
/wb,elem,start            !  set before creation of elements
/com,*********** Elements for Body 1 "SYS\Surface" ***********
et,1,187
eblock,19,solid,,507
(19i9)
        1        1        1        1        0        0        0        0       10        0        1      571     1368      811     1130     6089     7319     6085     6087
     8641     7318
        1        1        1        1        0        0        0        0       10        0        2      712     1534     1522     1290     6888     9491     6887     6879
     9104     9103
        1        1        1        1        0        0        0        0       10        0        3      340     1446      422      750     4564     5192     4556     4561
     7059     5181
        1        1        1        1        0        0        0        0       10        0        4      346     1408     1054      747     4626     8388     4622     4615
     7047     7045
        1        1        1        1        0        0        0        0       10        0        5      422      923      544      670     5186     5933     5178     5180
     6663     5932
        1        1        1        1        0        0        0        0       10        0        6      346     1054      570      747     4622     6080     4614     4615
     7045     6077
        1        1        1        1        0        0        0        0       10        0        7      346      570     1408      747     4614     6083     4626     4615
     6077     7047
        1        1        1        1        0        0        0        0       10        0        8      890      909     1629     1381     7714     7820     7720     7718
     7819     9287
        1        1        1        1        0        0        0        0       10        0        9       40      660     2706     2833     3137     6615     3144     3145
     6618    11905
        1        1        1        1        0        0        0        0       10        0       10      610     1318     1122     1372     6340     8609     6335     6342
     9161     8611
! ... 995 like lines cut
!Material Id = {37342AEA-3439-40C7-8628-40B978F671F8}
et,2,186
keyo,2,2,1          ! set full integration on SOLID186
eblock,19,solid,,2876
(19i9)
        1        2        1        1        0        0        0        0       20        0      508      514      850     1032     1029     2705     2795     2729     2890
     5757     7505     8274     5758    11902    11967    11969    11904     5763     7508     8291     8279
        1        2        1        1        0        0        0        0       20        0      509      821      824     1608     1609     2562     2558     2590     2501
     7362     7375     9605     7365    11621    11622    11545    11544     7367     7376     9606     9608
        1        2        1        1        0        0        0        0       20        0      510      494      740      525      537     1617     1065     1038     1611
     5618     5829     5828     5617     8432     8319     8321     9611     5621     7017     5831     5896
        1        2        1        1        0        0        0        0       20        0      511      553     1225      718      633     2720     2728     2663     2652
     5980     6912     6471     5978    11944    11773    11738    11739     5982     8938     6913     6475
        1        2        1        1        0        0        0        0       20        0      512      252      260     1360      355      263      270      268      266
     4158     4195     4692     4160     4206     4228     4218     4205     4159     4193     4230     4220
        1        2        1        1        0        0        0        0       20        0      513      192      218      220      199      502      971      521     1289
     3885     4011     3918     3884     5687     5804     5806     5689     3886     4013     4022     3919
        1        2        1        1        0        0        0        0       20        0      514      257      259      474      520      313      316      314      311
     4181     4191     5499     4183     4423     4426     4414     4413     4182     4190     4428     4415
        1        2        1        1        0        0        0        0       20        0      515      259      261      319      316     1809     1877     1723     1808
     4189     4198     4434     4190    10129     9931     9929    10126     4192     4200     4447     4435
        1        2        1        1        0        0        0        0       20        0      516      737      906     1033     1291     1498     1503      819     1501
     7000     7806     8292     7001     9454     7353     7352     9453     7004     7808     7351     9107
        1        2        1        1        0        0        0        0       20        0      517      688     1237      827      832     2837     2898     2783     2742
     6750     7390     7387     6749    12187    12105    12005    12006     6752     8966     7394     7413
! ... 5733 like lines cut
!Material Id = {37342AEA-3439-40C7-8628-40B978F671F8}
/wb,elem,end               !  done creating elements
/com,*********** Send User Defined Coordinate System(s) ***********
local,12,0,-0.44799347994067,-1.08989994374832,0.219819507961783,0.,0.,0.
local,13,0,-0.351833515900841,-0.953961335011107,0.223129856984001,0.,0.,0.
local,14,0,-0.215170486340283,-0.827637102735582,0.22387077367807,0.,0.,0.
local,15,0,-5.58715615981687e-002,-0.497486458460536,0.225428325320801,0.,0.,0.
local,16,0,-1.05725621208281e-002,-0.419349116671637,0.228467389530074,0.,0.,0.
local,17,0,-1.4231113065528,-0.561753844397193,0.446615599205031,0.,0.,0.
local,18,0,-1.21718879765911,-0.530192446745912,0.406644810024363,0.,0.,0.
local,19,0,-1.18108699467699,-0.45234792906705,0.375290605844662,0.,0.,0.
local,20,0,-0.87400999049222,-0.417920823487569,0.363955755747758,0.,0.,0.
local,21,0,-0.642870690471293,-0.366439872138964,0.326426285051743,0.,0.,0.
csys,0
toffst,273.15,  ! Temperature offset from absolute zero
/com,*********** Set Reference Temperature ***********
tref,22.
/wb,mat,start              !  starting to send materials
/com,*********** Send Materials ***********
Temperature = 'TEMP' ! Temperature
MP,DENS,1,7850,	! kg m^-3
MP,ALPX,1,1.2e-05,	! C^-1
MP,C,1,434,	! J kg^-1 C^-1
MP,KXX,1,60.5,	! W m^-1 C^-1
MP,RSVX,1,1.7e-07,	! kg m^3 A^-2 s^-3
MP,EX,1,200000000000,	! Pa
MP,NUXY,1,0.3,
MP,MURX,1,10000,

/wb,mat,end                !  done sending materials
!************************* Model Summary ********************
!SYS\Surface,	Structural Steel,	matid,	1
!************************* End Model Summary ********************
! get the diagonal of the bounding box. Needed later for other things
*get,_xmin,node,,mnloc,x
*get,_ymin,node,,mnloc,y
*get,_zmin,node,,mnloc,z
*get,_xmax,node,,mxloc,x
*get,_ymax,node,,mxloc,y
*get,_zmax,node,,mxloc,z
_ASMDIAG=(_xmax-_xmin)*(_xmax-_xmin)+(_ymax-_ymin)*(_ymax-_ymin)+(_zmax-_zmin)*(_zmax-_zmin)
_ASMDIAG=SQRT(_ASMDIAG)
/wb,contact,start          !  starting to send contact
/wb,contact,end            !  done creating contacts
CMBLOCK,SELECTION,NODE,      630
(8i10)
       402       456       478       491       511       516       549       551
       553       578       585       588       618       633       686       693
       718       721       731       732       753       756       767       775
       792       812       878       941       946      1042      1080      1082
      1139      1178      1184      1209      1219      1225      1247      1248
      1250      1257      1267      1279      1286      1320      1348      1366
      1383      1387      1400      1424      1521      1538      1549      1555
      1697      1709      1726      1736      1754      1759      1764      1774
      1780      1781      1793      1816      1831      1849      1864      1898
      1899      1906      1910      1919      1924      1925      1933      1938
      1939      1940      1941      1951      1952      1961      1962      1963
      1964      2649      2652      2653      2655      2657      2658      2660
      2663      2671      2672      2682      2683      2684      2699      2700
      2707      2710      2714      2720      2724      2726      2728      2739
      2740      2741      2745      2753      2754      2755      2756      2757
      2758      2759      2760      2761      2763      2766      2770      2773
      2775      2787      2793      2794      2801      2802      2804      2806
      2807      2813      2819      2822      2823      2827      2829      2838
      2842      2846      2847      2851      2853      2858      2862      2868
      2873      2874      2879      2880      2885      2893      2901      2902
! ... 59 like lines cut
CMBLOCK,SELECTION_2,NODE,      418
(8i10)
       187       214       345       380       498       503       546       559
       569       655       672       673       704       726       778       795
       835       841       843       882       891       894       905       910
       927       929       982      1005      1047      1064      1079      1086
      1107      1141      1146      1150      1151      1186      1189      1195
      1198      1223      1261      1336      1361      1393      1397      1402
      1404      1409      1419      1440      1443      1444      1452      1460
      1463      1493      1514      1562      1574      1588      1624      1648
      1668      1693      1769      1863      2654      2665      2670      2680
      2681      2697      2698      2715      2722      2723      2749      2768
      2791      2800      2805      2836      2859      2860      2871      2881
      2883      2887      2903      2904      2908      2919      2924      2930
      2937      3113      3116      3119      3854      3855      3857      3860
      3874      3986      3987      3989      4006      4009      4601      4602
      4603      4604      4605      4606      4607      4608      4644      4681
      4723      4728      4729      4777      4872      4874      4876      4877
      5024      5407      5518      5659      5660      5662      5663      5664
      5694      5695      5696      5697      5698      5771      5774      5776
      5867      5946      5947      5948      5960      5961      5969      5981
      6011      6012      6013      6015      6016      6017      6072      6073
! ... 33 like lines cut
CMBLOCK,SELECTION_3,NODE,     1263
(8i10)
        19        26        35        36        84       189       190       192
       199       216       217       218       219       221       265       282
       294       306       318       327       330       349       353       360
       363       365       366       389       396       410       411       415
       423       432       438       443       449       458       477       494
       497       502       504       521       525       532       537       570
       573       592       619       629       650       662       663       671
       698       700       705       727       729       735       736       740
       746       747       749       764       769       783       784       788
       802       809       829       833       834       845       847       861
       871       875       877       884       890       909       915       920
       933       935       951       966       971       976       985       986
       991       994      1001      1004      1008      1037      1038      1045
      1046      1049      1054      1056      1060      1062      1065      1067
      1068      1072      1078      1085      1092      1102      1110      1115
      1129      1137      1162      1169      1182      1192      1199      1201
      1202      1204      1220      1234      1235      1251      1255      1264
      1265      1283      1289      1294      1296      1297      1302      1309
      1312      1317      1324      1331      1332      1350      1374      1377
      1381      1382      1395      1396      1399      1403      1405      1408
! ... 138 like lines cut
CMBLOCK,SELECTION_4,NODE,      670
(8i10)
       363       378       390       417       438       477       480       486
       494       525       537       540       573       576       601       619
       630       640       643       650       654       662       663       671
       689       714       736       737       738       740       779       784
       793       796       809       810       819       821       822       823
       829       833       834       861       877       884       890       906
       909       933       936       968       988      1006      1019      1033
      1038      1043      1045      1053      1065      1069      1070      1089
      1124      1162      1169      1192      1194      1203      1204      1283
      1288      1291      1297      1309      1332      1339      1352      1380
      1405      1426      1431      1453      1472      1475      1477      1478
      1481      1495      1498      1501      1503      1510      1511      1561
      1573      1589      1606      1608      1609      1610      1611      1612
      1613      1617      1619      1622      1629      2358      2359      2360
      2364      2394      2396      2402      2406      2412      2418      2424
      2430      2433      2441      2453      2484      2489      2492      2501
      2516      2521      2543      2549      2551      2562      2575      2590
      2592      2601      2613      2614      2625      2626      2636      2665
      2670      2679      2696      2747      2772      2810      2811      2821
      2824      2825      2831      2845      2870      2876      2897      2920
! ... 64 like lines cut
CMBLOCK,SELECTION_5,NODE,       54
(8i10)
       440       577       824       826       830       883      1389      2482
      2487      2550      2558      2600      2603      2607      4901      5299
      5302      5884      5886      6116      6119      7344      7373      7374
      7376      7383      7385      7386      7403      7404      7406      7672
      7673      7674      7675      8456      8811      9298      9299     11362
     11449     11473     11500     11501     11502     11511     11513     11514
     11569     11596     11598     11612     11623     11630
CMBLOCK,SELECTION_6,NODE,      299
(8i10)
       448       470       485       565       583       865       930       934
       942       943       990      1128      1131      1577      1580      1635
      1655      1656      1667      1702      1731      1771      1798      1820
      1826      1858      1929      1936      1946      1947      1953      1957
      1958      1977      1978      1984      1985      1986      1987      1988
      2036      2037      2038      2075      2079      2117      2140      2155
      2171      2196      2206      2207      2226      2279      2280      2288
      2293      2294      2298      2306      2307      2316      2317      2323
      2324      2338      2339      2701      2725      2751      2752      2790
      2803      2832      2850      2854      2855      2900      5344      5345
      5346      5347      5348      5349      5350      5351      5476      5477
      5478      5481      5482      5572      5573      5574      5575      5576
      6049      6050      6051      6052      6148      6149      6150      6151
      6152      6511      6512      6519      6521      7570      7571      7573
      7575      7595      7596      7597      7598      7599      7600      7905
      7906      7907      7908      7909      7910      7911      7912      7913
      7914      7915      7916      7917      7918      7919      7920      7921
      7922      7936      7937      7938      7939      7940      7941      7942
      7970      7971      7972      7973      7974      7975      7990      7991
      8131      8132      8133      8134      8630      8631      8632      8633
! ... 18 like lines cut
CMBLOCK,SELECTION_7,NODE,       73
(8i10)
       620       639       641       860       947       948      1321      1742
      1943      2025      2088      2180      2192      2243      2270      2308
      2702      2730      2789      2861      5479      5480      5848      6396
      6397      6398      6401      6402      6508      6509      6518      7558
      7559      7563      7567      7568      7569      7572      7574      7576
      7984      7986      7987      7988      8491      8496      8497      9167
      9170      9573      9980      9981     10091     10229     10257     10302
     10315     10515     10516     10517     10719     10720     10733     10734
     10803     10929     10981     11069     11849     11971     12059     12119
     12209
CMBLOCK,SELECTION_8,NODE,      236
(8i10)
       400       529       530       531       625       692      1027      1083
      1285      1322      1378      1445      1451      1536      1570      1582
      1583      1584      1585      1586      1593      1595      1670      1677
      1678      1718      1788      1822      1823      1889      1891      1901
      1902      1914      1937      1995      2039      2067      2083      2094
      2123      2124      2145      2177      2215      2220      2244      2325
      2326      2685      2686      2711      2765      2809      2852      2866
      2911      2912      2917      5028      5029      5030      5031      5032
      5847      5849      5850      5851      5852      5853      5854      5855
      5856      5857      5858      5859      5860      5861      5862      5863
      5864      5865      5866      6040      6046      6153      6157      6213
      6216      6296      6395      6399      6400      6422      6423      6424
      6425      6510      6520      6770      6771      6772      6773      6774
      6775      7560      7561      7562      7564      7565      7566      7961
      7962      7985      7989      8265      8266      8268      8269      8270
      8492      8493      8494      8495      8801      9085      9086      9087
      9088      9089      9168      9171      9172      9173      9280      9281
      9282      9376      9379      9381      9382      9383      9384      9385
      9391      9392      9393      9509      9510      9554      9556      9567
      9568      9569      9570      9571      9572      9574      9575      9576
! ... 10 like lines cut
CMBLOCK,SELECTION_9,NODE,       83
(8i10)
       462       603       939      1026      1166      1351      1368      1594
      2035      2086      2134      2268      2310      2738      2779      2869
      2913      2933      5025      5026      5027      5429      5430      5431
      5432      5433      6210      6212      6217      6295      6297      6298
      6299      7959      7960      7963      7964      7965      8263      8264
      8267      8303      8774      8775      8776      8943      8944      8945
      9221      9222      9237      9259      9261      9262      9265      9267
      9587     10553     10554     10555     10556     10669     10828     10829
     10851     10975     10976     10977     11096     11806     11916     11918
     11992     11993     12007     12056     12057     12095     12203     12215
     12217     12218     12246
CMBLOCK,SELECTION_10,NODE,       69
(8i10)
       462       603      1351      1378      2035      2083      2220      2268
      2270      2308      2325      2326      2711      2738      2764      2779
      2789      2809      2869      5429      5432      5433      6189      6295
      6296      6297      6298      6299      8300      8303      8775      9220
      9221      9222      9280      9281      9282     10553     10554     10555
     10556     10669     10703     10705     10706     10734     10829     10955
     10975     10976     10977     10981     10982     10983     11069     11095
     11096     11097     11916     11917     11918     11992     11993     12056
     12057     12095     12117     12146     12215
/golist
/wb,load,start             !  starting to send loads
/com,*********** Create Direct FE , Displacements ****
CMBLOCK,_CM131U ,NODE,      630
(8i10)
       402       456       478       491       511       516       549       551
       553       578       585       588       618       633       686       693
       718       721       731       732       753       756       767       775
       792       812       878       941       946      1042      1080      1082
      1139      1178      1184      1209      1219      1225      1247      1248
      1250      1257      1267      1279      1286      1320      1348      1366
      1383      1387      1400      1424      1521      1538      1549      1555
      1697      1709      1726      1736      1754      1759      1764      1774
      1780      1781      1793      1816      1831      1849      1864      1898
      1899      1906      1910      1919      1924      1925      1933      1938
      1939      1940      1941      1951      1952      1961      1962      1963
      1964      2649      2652      2653      2655      2657      2658      2660
      2663      2671      2672      2682      2683      2684      2699      2700
      2707      2710      2714      2720      2724      2726      2728      2739
      2740      2741      2745      2753      2754      2755      2756      2757
      2758      2759      2760      2761      2763      2766      2770      2773
      2775      2787      2793      2794      2801      2802      2804      2806
      2807      2813      2819      2822      2823      2827      2829      2838
      2842      2846      2847      2851      2853      2858      2862      2868
      2873      2874      2879      2880      2885      2893      2901      2902
! ... 59 like lines cut
CMBLOCK,_CM133U ,NODE,      418
(8i10)
       187       214       345       380       498       503       546       559
       569       655       672       673       704       726       778       795
       835       841       843       882       891       894       905       910
       927       929       982      1005      1047      1064      1079      1086
      1107      1141      1146      1150      1151      1186      1189      1195
      1198      1223      1261      1336      1361      1393      1397      1402
      1404      1409      1419      1440      1443      1444      1452      1460
      1463      1493      1514      1562      1574      1588      1624      1648
      1668      1693      1769      1863      2654      2665      2670      2680
      2681      2697      2698      2715      2722      2723      2749      2768
      2791      2800      2805      2836      2859      2860      2871      2881
      2883      2887      2903      2904      2908      2919      2924      2930
      2937      3113      3116      3119      3854      3855      3857      3860
      3874      3986      3987      3989      4006      4009      4601      4602
      4603      4604      4605      4606      4607      4608      4644      4681
      4723      4728      4729      4777      4872      4874      4876      4877
      5024      5407      5518      5659      5660      5662      5663      5664
      5694      5695      5696      5697      5698      5771      5774      5776
      5867      5946      5947      5948      5960      5961      5969      5981
      6011      6012      6013      6015      6016      6017      6072      6073
! ... 33 like lines cut
CMBLOCK,_CM135U ,NODE,     1263
(8i10)
        19        26        35        36        84       189       190       192
       199       216       217       218       219       221       265       282
       294       306       318       327       330       349       353       360
       363       365       366       389       396       410       411       415
       423       432       438       443       449       458       477       494
       497       502       504       521       525       532       537       570
       573       592       619       629       650       662       663       671
       698       700       705       727       729       735       736       740
       746       747       749       764       769       783       784       788
       802       809       829       833       834       845       847       861
       871       875       877       884       890       909       915       920
       933       935       951       966       971       976       985       986
       991       994      1001      1004      1008      1037      1038      1045
      1046      1049      1054      1056      1060      1062      1065      1067
      1068      1072      1078      1085      1092      1102      1110      1115
      1129      1137      1162      1169      1182      1192      1199      1201
      1202      1204      1220      1234      1235      1251      1255      1264
      1265      1283      1289      1294      1296      1297      1302      1309
      1312      1317      1324      1331      1332      1350      1374      1377
      1381      1382      1395      1396      1399      1403      1405      1408
! ... 138 like lines cut
CMBLOCK,_CM137U ,NODE,      670
(8i10)
       363       378       390       417       438       477       480       486
       494       525       537       540       573       576       601       619
       630       640       643       650       654       662       663       671
       689       714       736       737       738       740       779       784
       793       796       809       810       819       821       822       823
       829       833       834       861       877       884       890       906
       909       933       936       968       988      1006      1019      1033
      1038      1043      1045      1053      1065      1069      1070      1089
      1124      1162      1169      1192      1194      1203      1204      1283
      1288      1291      1297      1309      1332      1339      1352      1380
      1405      1426      1431      1453      1472      1475      1477      1478
      1481      1495      1498      1501      1503      1510      1511      1561
      1573      1589      1606      1608      1609      1610      1611      1612
      1613      1617      1619      1622      1629      2358      2359      2360
      2364      2394      2396      2402      2406      2412      2418      2424
      2430      2433      2441      2453      2484      2489      2492      2501
      2516      2521      2543      2549      2551      2562      2575      2590
      2592      2601      2613      2614      2625      2626      2636      2665
      2670      2679      2696      2747      2772      2810      2811      2821
      2824      2825      2831      2845      2870      2876      2897      2920
! ... 64 like lines cut
CMBLOCK,_CM139U ,NODE,       54
(8i10)
       440       577       824       826       830       883      1389      2482
      2487      2550      2558      2600      2603      2607      4901      5299
      5302      5884      5886      6116      6119      7344      7373      7374
      7376      7383      7385      7386      7403      7404      7406      7672
      7673      7674      7675      8456      8811      9298      9299     11362
     11449     11473     11500     11501     11502     11511     11513     11514
     11569     11596     11598     11612     11623     11630
/com,*********** Create Direct FE , Forces ****
CMBLOCK,_CM141F ,NODE,      299
(8i10)
       448       470       485       565       583       865       930       934
       942       943       990      1128      1131      1577      1580      1635
      1655      1656      1667      1702      1731      1771      1798      1820
      1826      1858      1929      1936      1946      1947      1953      1957
      1958      1977      1978      1984      1985      1986      1987      1988
      2036      2037      2038      2075      2079      2117      2140      2155
      2171      2196      2206      2207      2226      2279      2280      2288
      2293      2294      2298      2306      2307      2316      2317      2323
      2324      2338      2339      2701      2725      2751      2752      2790
      2803      2832      2850      2854      2855      2900      5344      5345
      5346      5347      5348      5349      5350      5351      5476      5477
      5478      5481      5482      5572      5573      5574      5575      5576
      6049      6050      6051      6052      6148      6149      6150      6151
      6152      6511      6512      6519      6521      7570      7571      7573
      7575      7595      7596      7597      7598      7599      7600      7905
      7906      7907      7908      7909      7910      7911      7912      7913
      7914      7915      7916      7917      7918      7919      7920      7921
      7922      7936      7937      7938      7939      7940      7941      7942
      7970      7971      7972      7973      7974      7975      7990      7991
      8131      8132      8133      8134      8630      8631      8632      8633
! ... 18 like lines cut
CMBLOCK,_CM143F ,NODE,       73
(8i10)
       620       639       641       860       947       948      1321      1742
      1943      2025      2088      2180      2192      2243      2270      2308
      2702      2730      2789      2861      5479      5480      5848      6396
      6397      6398      6401      6402      6508      6509      6518      7558
      7559      7563      7567      7568      7569      7572      7574      7576
      7984      7986      7987      7988      8491      8496      8497      9167
      9170      9573      9980      9981     10091     10229     10257     10302
     10315     10515     10516     10517     10719     10720     10733     10734
     10803     10929     10981     11069     11849     11971     12059     12119
     12209
CMBLOCK,_CM145F ,NODE,      236
(8i10)
       400       529       530       531       625       692      1027      1083
      1285      1322      1378      1445      1451      1536      1570      1582
      1583      1584      1585      1586      1593      1595      1670      1677
      1678      1718      1788      1822      1823      1889      1891      1901
      1902      1914      1937      1995      2039      2067      2083      2094
      2123      2124      2145      2177      2215      2220      2244      2325
      2326      2685      2686      2711      2765      2809      2852      2866
      2911      2912      2917      5028      5029      5030      5031      5032
      5847      5849      5850      5851      5852      5853      5854      5855
      5856      5857      5858      5859      5860      5861      5862      5863
      5864      5865      5866      6040      6046      6153      6157      6213
      6216      6296      6395      6399      6400      6422      6423      6424
      6425      6510      6520      6770      6771      6772      6773      6774
      6775      7560      7561      7562      7564      7565      7566      7961
      7962      7985      7989      8265      8266      8268      8269      8270
      8492      8493      8494      8495      8801      9085      9086      9087
      9088      9089      9168      9171      9172      9173      9280      9281
      9282      9376      9379      9381      9382      9383      9384      9385
      9391      9392      9393      9509      9510      9554      9556      9567
      9568      9569      9570      9571      9572      9574      9575      9576
! ... 10 like lines cut
CMBLOCK,_CM147F ,NODE,       83
(8i10)
       462       603       939      1026      1166      1351      1368      1594
      2035      2086      2134      2268      2310      2738      2779      2869
      2913      2933      5025      5026      5027      5429      5430      5431
      5432      5433      6210      6212      6217      6295      6297      6298
      6299      7959      7960      7963      7964      7965      8263      8264
      8267      8303      8774      8775      8776      8943      8944      8945
      9221      9222      9237      9259      9261      9262      9265      9267
      9587     10553     10554     10555     10556     10669     10828     10829
     10851     10975     10976     10977     11096     11806     11916     11918
     11992     11993     12007     12056     12057     12095     12203     12215
     12217     12218     12246
CMBLOCK,_CM149F ,NODE,       69
(8i10)
       462       603      1351      1378      2035      2083      2220      2268
      2270      2308      2325      2326      2711      2738      2764      2779
      2789      2809      2869      5429      5432      5433      6189      6295
      6296      6297      6298      6299      8300      8303      8775      9220
      9221      9222      9280      9281      9282     10553     10554     10555
     10556     10669     10703     10705     10706     10734     10829     10955
     10975     10976     10977     10981     10982     10983     11069     11095
     11096     11097     11916     11917     11918     11992     11993     12056
     12057     12095     12117     12146     12215
/gst,on,on
fini
*get,_numnode,node,0,count
*get,_numelem,elem,0,count
*get, _MAXELEMNUM, elem, 0, NUM, MAX
*get, _MAXNODENUM, node, 0, NUM, MAX
*get, _MAXELEMTYPE, etyp, 0, NUM, MAX
*get, _MAXREALCONST, real, 0, NUM, MAX
/go
/wb,load,end               !  done creating loads
/com,--- Number of total nodes = %_numnode%
/com,--- Number of contact elements = 0
/com,--- Number of spring elements = 0
/com,--- Number of bearing elements = 0
/com,--- Number of solid elements = 3383
/com,--- Number of condensed parts = 0
/com,--- Number of total elements = %_numelem%
*get,_wallbsol,active,,time,wall
/com,****************************************************************************
/com,*************************    SOLUTION       ********************************
/com,****************************************************************************
/solu
antype,0                   ! static analysis
_thickRatio=  1     ! Ratio of thick parts in the model
eqsl,pcg,1e-8,,,,,,1
cntr,print,1               ! print out contact info and also make no initial contact an error
dmpoption,emat,no             ! Don't combine emat file for DANSYS
dmpoption,esav,no             ! Don't combine esav file for DANSYS
nldiag,cont,iter           ! print out contact info each equilibrium iteration
rescontrol,,none                 ! Do not keep any restart files
/com,****************************************************
/com,******************* SOLVE FOR LS 1 OF 1 ****************
/com,**** Set Direct FE , Displacements ****
d,_CM131U,ux,-1.5864913058268e-004
d,_CM131U,uy,-1.74304741464324e-004
d,_CM131U,uz,-5.46791354898006e-004
d,_CM133U,ux,-1.23600817737513e-005
d,_CM133U,uy,-1.3887491958414e-003
d,_CM133U,uz,-9.17431718007985e-004
d,_CM135U,ux,9.35817395737628e-004
d,_CM135U,uy,5.89464513334726e-004
d,_CM135U,uz,1.37043938961539e-003
d,_CM137U,ux,-9.30028668850141e-004
d,_CM137U,uy,5.46742894670181e-004
d,_CM137U,uz,6.40224291766305e-004
d,_CM139U,ux,-6.43727517821064e-004
d,_CM139U,uy,1.26789366253153e-003
d,_CM139U,uz,-9.2837222696797e-004
/com,**** Set Direct FE , Forces ****
f,_CM141F,fx,-0.384668960297495
f,_CM141F,fy,-0.347883702359405
f,_CM141F,fz,0.449328088425953
f,_CM143F,fx,-9.34285021664763e-003
f,_CM143F,fy,2.30651977729885
f,_CM143F,fz,-2.96591018390253
f,_CM145F,fx,0.30871916685055
f,_CM145F,fy,-0.137411797866409
f,_CM145F,fz,-0.288039288900926
f,_CM147F,fx,-1.489446302057
f,_CM147F,fy,-0.179058928084877
f,_CM147F,fz,2.3349888166602
f,_CM149F,fx,-2.86164505174493
f,_CM149F,fy,2.86680597909565
f,_CM149F,fz,0.122746038888504
/nopr
/gopr
nsub,1,1,1
time,1.
outres,erase
outres,all,none
outres,nsol,last,
outres,rsol,last
outres,eangl,last
outres,etmp,last
outres,veng,last
outres,strs,last,
outres,epel,last,
outres,eppl,last,
outres,cont,last,
! *********** WB SOLVE COMMAND ***********
! check interactive state
*get,ANSINTER_,active,,int
*if,ANSINTER_,ne,0,then
/eof
*endif
solve
/com *************** Write FE CONNECTORS ********* 
CEWRITE,file,ce,,INTE
/com,****************************************************
/com,*************** FINISHED SOLVE FOR LS 1 *************
*get,_wallasol,active,,time,wall
/nopr
*get,_numnode,node,0,count
*get,_numelem,elem,0,count
*get, _MAXELEMNUM, elem, 0, NUM, MAX
*get, _MAXNODENUM, node, 0, NUM, MAX,,,INTERNAL
*get, _MAXELEMTYPE, etyp, 0, NUM, MAX
*get, _MAXREALCONST, real, 0, NUM, MAX
/gopr
*get,_PCGITER,active,,solu,cgiter
/post1
xmlo,ENCODING,ISO-8859-1
xmlo,parm
/xml,parm,xml
fini
/gopr
*get,_walldone,active,,time,wall
_preptime=(_wallbsol-_wallstrt)*3600
_solvtime=(_wallasol-_wallbsol)*3600
_posttime=(_walldone-_wallasol)*3600
_totaltim=(_walldone-_wallstrt)*3600
*get,_dlbratio,active,0,solu,dlbr
*get,_combtime,active,0,solu,comb
/com,--- Number of total nodes = %_numnode%
/com,--- Number of total elements = %_numelem%
/com,--- Element load balance ratio = %_dlbratio%
/com,--- Time to combine distributed files = %_combtime%
/wb,file,end               ! done with WB generated input
