/batch
/config,noeldb,1     ! force off writing results to database
*get,_wallstrt,active,,time,wall
! ANSYS input file written by Workbench version 2020 R1
! File used for geometry attach: C:\Users\Owner\AppData\Local\Temp\WB_DESKTOP-SDVPC46_Walther Wennholz_18412_2\unsaved_project_files\dp0\SYS\DM\SYS.scdoc
/title,direct_node_displacement--Static Structural (A5)
*DIM,_wb_ProjectScratch_dir,string,248
_wb_ProjectScratch_dir(1) = 'D:\Ansys Simulations\Project\2D\v6_test\_ProjectScratch\ScrB003\'
*DIM,_wb_SolverFiles_dir,string,248
_wb_SolverFiles_dir(1) = 'D:\Ansys Simulations\Project\2D\v6_test\direct_node_displacement_files\dp0\SYS\MECH\'
*DIM,_wb_userfiles_dir,string,248
_wb_userfiles_dir(1) = 'D:\Ansys Simulations\Project\2D\v6_test\direct_node_displacement_files\user_files\'
/com,--- Data in consistent BIN units. See Solving Units in the help system for more information.
/units,BIN
/nopr
/wb,file,start              !  signify a WB generated input file
/prep7
! Turn off shape checking because checks already performed inside WB mesher.
! See help system for more information.
SHPP,OFF,,NOWARN
/nolist
etcon,set             ! allow ANSYS to choose best KEYOP's for 180x elements
/com,*********** Nodes for the whole assembly ***********
nblock,3,,13222
(1i9,3e20.9e3)
        1     1.506782537E+01    -1.111605310E+01     2.022862889E+01
        2     1.337589606E+01    -7.191368838E+00     1.798206957E+01
        3     1.546488836E+01    -1.262634011E+01     2.060575272E+01
        4     1.328938163E+01    -5.922268947E+00     1.793811745E+01
        5     1.550645097E+01    -1.074856325E+01     2.173988613E+01
        6     1.447412981E+01    -7.695390341E+00     2.007944874E+01
        7     1.586613036E+01    -1.190334104E+01     2.192794282E+01
        8     1.396625334E+01    -6.527725901E+00     1.956877905E+01
        9     1.483794246E+01    -7.014481159E+00     2.099659456E+01
       10     1.375005114E+01    -5.548773533E+00     1.932133373E+01
       11     1.463740168E+01    -6.118335654E+00     2.089963849E+01
       12     1.774657937E+01    -1.151565627E+01     2.224354419E+01
       13     1.471193946E+01    -5.313631389E+00     2.068820503E+01
       14     1.888262085E+01    -1.163159808E+01     2.126388219E+01
       15     1.800200984E+01    -1.065178044E+01     2.260174538E+01
       16     1.505992943E+01    -6.460010752E+00     2.155459636E+01
       17     1.876084233E+01    -1.037016127E+01     2.191729381E+01
       18     1.497074141E+01    -5.801310538E+00     2.152282015E+01
       19     1.897901863E+01    -1.001075831E+01     2.287484656E+01
       20     1.524574827E+01    -5.212233357E+00     2.147072632E+01
! ... 12001 like lines cut
/wb,elem,start            !  set before creation of elements
/com,*********** Elements for Body 1 "SYS\Surface" ***********
et,1,187
eblock,19,solid,,586
(19i9)
        1        1        1        1        0        0        0        0       10        0        1       47      379     1307      312     3085     5400     3089     3084
     4937     4952
        1        1        1        1        0        0        0        0       10        0        2      287      750     1047     1324     4763     7310     4765     4767
     7311     8416
        1        1        1        1        0        0        0        0       10        0        3       69     1245     1372      787     3235     8940     3236     3234
     7475     7476
        1        1        1        1        0        0        0        0       10        0        4      316     1475      524      637     4989     6227     4977     4978
     6791     6223
        1        1        1        1        0        0        0        0       10        0        5      524     1475     1225      637     6227     8892     6226     6223
     6791     6788
        1        1        1        1        0        0        0        0       10        0        6      316      524     1225      637     4977     6226     4987     4978
     6223     6788
        1        1        1        1        0        0        0        0       10        0        7      218      624      928      225     4221     6715     4224     4219
     4297     4301
        1        1        1        1        0        0        0        0       10        0        8      294      493     1390      886     4836     6076     4841     4837
     6073     7865
        1        1        1        1        0        0        0        0       10        0        9      601     1173      879     1179     6626     7840     6624     6627
     8759     7841
        1        1        1        1        0        0        0        0       10        0       10      219      842      582      444     4229     6532     4228     4227
     5792     5790
! ... 1153 like lines cut
!Material Id = {EF170191-3037-4816-A12C-895A6AB74C6E}
et,2,186
keyo,2,2,1          ! set full integration on SOLID186
eblock,19,solid,,2835
(19i9)
        1        2        1        1        0        0        0        0       20        0      587      373      875      457      458     1496     1507     1512     1505
     5349     5865     5863     5346     9329     9360     9356     9328     5350     7825     5867     5868
        1        2        1        1        0        0        0        0       20        0      588      163      907     1198      256     2748     2523     2787     2757
     3803     7944     4537     3800    11433    11434    11954    11949     3805     7945     8825     4539
        1        2        1        1        0        0        0        0       20        0      589      477     1149     1236      606     1868     2045     1885     2015
     5988     8696     6646     5986    10114    10169    10168    10112     5990     8699     8919     6647
        1        2        1        1        0        0        0        0       20        0      590      975     1206     1267      976     2148     2095     1898     2059
     8174     8845     8179     8172    10671    10213    10212    10622     8177     8848     8975     8180
        1        2        1        1        0        0        0        0       20        0      591      501      697     1450      535     1417      948      722     1433
     6114     7072     6286     6112     8084     7182     7187     9224     6116     7069     7188     6285
        1        2        1        1        0        0        0        0       20        0      592       18       20       26       24      808     1428     1206      467
     2939     2949     2968     2940     7563     8847     5927     5922     2942     2950     2977     2971
        1        2        1        1        0        0        0        0       20        0      593     1034     1158     1159     1140     2248     2439     2357     2462
     8374     8724     8672     8373    10922    11242    11243    10923     8377     8727     8729     8675
        1        2        1        1        0        0        0        0       20        0      594      161      654      232      960     1660     1751     1696     1649
     3790     4355     4356     3792     9796     9864     9773     9771     3795     6874     4360     8122
        1        2        1        1        0        0        0        0       20        0      595      242      733      799     1295     2736     2741     2574     2553
     4452     7234     7525     4453    11936    11618    11546    11549     4455     7237     7527     9031
        1        2        1        1        0        0        0        0       20        0      596      243      518      713      913     1556     1613     1738     1520
     4456     6194     7142     4459     9521     9689     9403     9401     4460     6198     7143     7968
! ... 5651 like lines cut
!Material Id = {EF170191-3037-4816-A12C-895A6AB74C6E}
/wb,elem,end               !  done creating elements
/com,*********** Send User Defined Coordinate System(s) ***********
csys,0
toffst,459.67,  ! Temperature offset from absolute zero
/com,*********** Set Reference Temperature ***********
tref,71.6
/wb,mat,start              !  starting to send materials
/com,*********** Send Materials ***********
Temperature = 'TEMP' ! Temperature
MP,DENS,1,0.000734544492879577,	! slinch in^-3
MP,ALPX,1,6.66666666666667e-06,	! F^-1
MP,C,1,373722.969668162,	! in^2 s^-2 F^-1
MP,KXX,1,7.55607836445752,	! slinch in s^-3 F^-1
MP,RSVX,1,8.52348993288591,	! ohm cmil in^-1
MP,EX,1,29007547.5428236,	! slinch s^-2 in^-1
MP,NUXY,1,0.3,
MP,MURX,1,10000,

/wb,mat,end                !  done sending materials
!************************* Model Summary ********************
!SYS\Surface,	Structural Steel,	matid,	1
!************************* End Model Summary ********************
! get the diagonal of the bounding box. Needed later for other things
*get,_xmin,node,,mnloc,x
*get,_ymin,node,,mnloc,y
*get,_zmin,node,,mnloc,z
*get,_xmax,node,,mxloc,x
*get,_ymax,node,,mxloc,y
*get,_zmax,node,,mxloc,z
_ASMDIAG=(_xmax-_xmin)*(_xmax-_xmin)+(_ymax-_ymin)*(_ymax-_ymin)+(_zmax-_zmin)*(_zmax-_zmin)
_ASMDIAG=SQRT(_ASMDIAG)
/wb,contact,start          !  starting to send contact
/wb,contact,end            !  done creating contacts
CMBLOCK,NODES   ,ELEM,       62
(8i10)
       597       632       636       709       714       750       774       777
       796       799       835       903       907       981       989       996
      1032      1056      1069      1080      1104      1179      1182      1192
      1239      1248      1284      1356      1417      1420      1435      1515
      1516      1551      1583      1604      1632      1644      1668      1692
      1695      1712      1738      1761      1799      1823      1846      1850
      1875      1898      1918      1937      1947      1974      1975      1988
      2011      2027      2070      2080      2131      3060
CMBLOCK,NODES2  ,NODE,      133
(8i10)
      1561      1577      1596      1601      1603      1606      1607      1608
      1670      1671      1673      1678      1679      1685      1687      1702
      1706      1719      1746      1747      1780      1791      1812      1817
      1857      1862      1864      1893      1902      1919      1942      1972
      1992      2001      2018      2027      2035      2038      2068      2081
      2084      2086      2088      2099      2101      2137      2151      2202
      9353      9518      9519      9534      9535      9537      9538      9588
      9589      9616      9622      9623      9642      9644      9647      9648
      9651      9653      9658      9662      9670      9674      9676      9677
      9762      9763      9764      9784      9785      9814      9816      9817
      9818      9820      9821      9824      9833      9834      9845      9846
      9847      9848      9877      9916      9927      9945      9957      9958
      9962     10015     10023     10068     10092     10177     10178     10195
     10221     10222     10226     10229     10231     10277     10278     10354
     10438     10452     10453     10506     10515     10526     10534     10536
     10541     10556     10573     10632     10639     10643     10651     10656
     10658     10661     10760     10768     10798
CMBLOCK,NODES3  ,NODE,      120
(8i10)
      1509      1526      1530      1564      1579      1652      1699      1759
      1815      1836      1932      1979      1993      2013      2014      2030
      2054      2066      2069      2135      2167      2290      2315      2348
      2421      2499      2564      2622      2651      2653      2658      2681
      2813      2842      2843      2844      9367      9369      9412      9413
      9414      9423      9424      9439      9441      9504      9505      9529
      9544      9545      9590      9592      9593      9661      9700      9702
      9703      9716      9780      9781      9805      9868      9912      9951
     10020     10089     10090     10117     10167     10294     10295     10324
     10365     10415     10416     10457     10518     10546     10611     10613
     10618     10712     10736     10837     11057     11059     11116     11132
     11133     11134     11211     11261     11340     11355     11401     11402
     11411     11414     11487     11488     11498     11499     11521     11523
     11582     11686     11700     11701     11753     11759     11794     11825
     11838     11873     11875     11894     11972     11988     11990     12018

/golist
/wb,load,start             !  starting to send loads
/com,*********** Create Direct FE , Displacements ****
CMBLOCK,_CM115U ,NODE,      120
(8i10)
      1509      1526      1530      1564      1579      1652      1699      1759
      1815      1836      1932      1979      1993      2013      2014      2030
      2054      2066      2069      2135      2167      2290      2315      2348
      2421      2499      2564      2622      2651      2653      2658      2681
      2813      2842      2843      2844      9367      9369      9412      9413
      9414      9423      9424      9439      9441      9504      9505      9529
      9544      9545      9590      9592      9593      9661      9700      9702
      9703      9716      9780      9781      9805      9868      9912      9951
     10020     10089     10090     10117     10167     10294     10295     10324
     10365     10415     10416     10457     10518     10546     10611     10613
     10618     10712     10736     10837     11057     11059     11116     11132
     11133     11134     11211     11261     11340     11355     11401     11402
     11411     11414     11487     11488     11498     11499     11521     11523
     11582     11686     11700     11701     11753     11759     11794     11825
     11838     11873     11875     11894     11972     11988     11990     12018

/com,*********** Create Direct FE , Forces ****
CMBLOCK,_CM196F ,NODE,      133
(8i10)
      1561      1577      1596      1601      1603      1606      1607      1608
      1670      1671      1673      1678      1679      1685      1687      1702
      1706      1719      1746      1747      1780      1791      1812      1817
      1857      1862      1864      1893      1902      1919      1942      1972
      1992      2001      2018      2027      2035      2038      2068      2081
      2084      2086      2088      2099      2101      2137      2151      2202
      9353      9518      9519      9534      9535      9537      9538      9588
      9589      9616      9622      9623      9642      9644      9647      9648
      9651      9653      9658      9662      9670      9674      9676      9677
      9762      9763      9764      9784      9785      9814      9816      9817
      9818      9820      9821      9824      9833      9834      9845      9846
      9847      9848      9877      9916      9927      9945      9957      9958
      9962     10015     10023     10068     10092     10177     10178     10195
     10221     10222     10226     10229     10231     10277     10278     10354
     10438     10452     10453     10506     10515     10526     10534     10536
     10541     10556     10573     10632     10639     10643     10651     10656
     10658     10661     10760     10768     10798
/gst,on,on
fini
*get,_numnode,node,0,count
*get,_numelem,elem,0,count
*get, _MAXELEMNUM, elem, 0, NUM, MAX
*get, _MAXNODENUM, node, 0, NUM, MAX
*get, _MAXELEMTYPE, etyp, 0, NUM, MAX
*get, _MAXREALCONST, real, 0, NUM, MAX
/go
/wb,load,end               !  done creating loads
/com,--- Number of total nodes = %_numnode%
/com,--- Number of contact elements = 0
/com,--- Number of spring elements = 0
/com,--- Number of bearing elements = 0
/com,--- Number of solid elements = 3421
/com,--- Number of condensed parts = 0
/com,--- Number of total elements = %_numelem%
*get,_wallbsol,active,,time,wall
/com,****************************************************************************
/com,*************************    SOLUTION       ********************************
/com,****************************************************************************
/solu
antype,0                   ! static analysis
_thickRatio=  1     ! Ratio of thick parts in the model
eqsl,pcg,1e-8,,,,,,1
cntr,print,1               ! print out contact info and also make no initial contact an error
nldiag,cont,iter           ! print out contact info each equilibrium iteration
rescontrol,,none                 ! Do not keep any restart files
/com,****************************************************
/com,******************* SOLVE FOR LS 1 OF 1 ****************
acel,-279539.324340876,-172137.993025297,363045.269054488
/com,**** Set Direct FE , Displacements ****
d,_CM115U,ux,0.
d,_CM115U,uy,0.
d,_CM115U,uz,0.
/com,**** Set Direct FE , Forces ****
f,_CM196F,fx,0.751879699120671
f,_CM196F,fy,1.12781954868101
f,_CM196F,fz,0.150375939824134
/nopr
/gopr
nsub,1,1,1
time,1.
outres,erase
outres,all,none
outres,nsol,last,
outres,rsol,last
outres,eangl,last
outres,etmp,last
outres,veng,last
outres,strs,last,
outres,epel,last,
outres,eppl,last,
outres,cont,last,
! *********** WB SOLVE COMMAND ***********
! check interactive state
*get,ANSINTER_,active,,int
*if,ANSINTER_,ne,0,then
/eof
*endif
solve
/com *************** Write FE CONNECTORS ********* 
CEWRITE,file,ce,,INTE
/com,****************************************************
/com,*************** FINISHED SOLVE FOR LS 1 *************
*get,_wallasol,active,,time,wall
/nopr
*get,_numnode,node,0,count
*get,_numelem,elem,0,count
*get, _MAXELEMNUM, elem, 0, NUM, MAX
*get, _MAXNODENUM, node, 0, NUM, MAX,,,INTERNAL
*get, _MAXELEMTYPE, etyp, 0, NUM, MAX
*get, _MAXREALCONST, real, 0, NUM, MAX
/gopr
*get,_PCGITER,active,,solu,cgiter
/post1
xmlo,ENCODING,ISO-8859-1
xmlo,parm
/xml,parm,xml
fini
/gopr
*get,_walldone,active,,time,wall
_preptime=(_wallbsol-_wallstrt)*3600
_solvtime=(_wallasol-_wallbsol)*3600
_posttime=(_walldone-_wallasol)*3600
_totaltim=(_walldone-_wallstrt)*3600
*get,_dlbratio,active,0,solu,dlbr
*get,_combtime,active,0,solu,comb
/com,--- Number of total nodes = %_numnode%
/com,--- Number of total elements = %_numelem%
/com,--- Element load balance ratio = %_dlbratio%
/com,--- Time to combine distributed files = %_combtime%
/wb,file,end               ! done with WB generated input
